22
Coordinates from ORCA job orca
  Cf      0.00805308772375      0.25956171065848     -0.63379239362658
  N       2.10124798080108     -0.83450084814551     -0.01671832990708
  C       2.52537281423904     -0.08036131586711      1.18935470298654
  C       1.46801965621579     -0.19463573975966      2.26996981207360
  N       0.11384322615209      0.18273809140645      1.77427894141736
  C      -0.46224029123697      1.42966096352058      2.34858522946065
  C      -0.04992550879467      2.65484770230913      1.56151226035054
  N      -0.49912838106178      2.51729084681233      0.14987006346307
  H       2.00342546158460     -1.83203298833760      0.21474158391263
  H       2.85462459543574     -0.81936517203242     -0.71532005965271
  H       2.68472533912826      0.97412436244621      0.89461614847979
  H       3.49463502495585     -0.43835002650274      1.57430831304078
  H       1.75009874850194      0.42635157345247      3.13531180055146
  H       1.42401745577432     -1.23290162925486      2.63859461227885
  H      -0.53092148762413     -0.57191842196116      2.02668061974329
  H      -0.17271398027517      1.53749817593323      3.40702369450506
  H      -1.56044266052945      1.32443874023705      2.33296740260702
  H       1.04552707426196      2.78546898183869      1.56564120107011
  H      -0.47353476916586      3.55931088975848      2.02750785833803
  H      -0.13518275327131      3.30513855422421     -0.39992214386226
  H      -1.51952812096201      2.64835721739534      0.11522443193435
  Cl     -2.02527251185313     -0.97222166813159     -0.47673574916451
