22
Coordinates from ORCA job orca
  Np     -0.10884909372865      1.17072458799055      0.62168158815500
  C       3.01579817462218      0.27680534170609     -0.38176941354609
  O       1.74108437647727      0.75957483665092     -0.05545832136573
  H       3.56011964018310     -0.01765265756564      0.53016928835331
  H       3.59428755270261      1.05859013391736     -0.89900690318438
  H       2.93543134442871     -0.59928500639257     -1.04509053100665
  C      -2.17250444761248     -1.33045311126715     -0.41149936487333
  O      -1.41085288206692     -0.20303180490915     -0.07665953229104
  H      -2.19677411027417     -1.46081582489853     -1.50512461083933
  H      -3.20523730981155     -1.21253489309343     -0.04634731699784
  H      -1.73983242066485     -2.23707450423232      0.04206348693706
  C       0.17497492956052      0.71635827901264      3.98023468809697
  O      -0.01472960595840      1.02385713073363      2.62613706548607
  H       0.53138503796133     -0.32017187803439      4.09455972265466
  H      -0.77322022973184      0.82566605629627      4.53020633568554
  H       0.92070699368447      1.39597581304164      4.42311996745812
  C      -0.86196957732444      6.05943123592104     -0.66987160382123
  C      -0.70656911651789      4.67230970815449     -0.30860908904038
  N      -0.57863055573602      3.56009544186776     -0.01975295314739
  H      -1.56208150191393      6.14493529430342     -1.51487584559919
  H       0.11423919795534      6.47569700564761     -0.96207456253880
  H      -1.25657639623442      6.62349881514952      0.18896790542463
