29
Coordinates from ORCA job orca
  Es      0.59371994133391      0.38044262601829     -0.22461143869831
  C      -1.25380280999105     -0.58352370857098      2.53563638602092
  C      -0.88876594028645     -1.06368248422540      3.92699590513986
  C      -0.02533119446707     -2.28153923906167      3.62099290014399
  C       0.78234372964934     -1.78795210793202      2.43930348427978
  O      -0.11431866491726     -0.91552001576930      1.71760591337638
  H      -1.42143837538525      0.50136549307977      2.45530804839713
  H      -2.13477846377176     -1.12364946293734      2.14212668638837
  H      -1.77356497212954     -1.28779687719538      4.53998504795294
  H      -0.29572825331806     -0.29529818389110      4.44952002252690
  H      -0.65366550404176     -3.14162985519190      3.33427159635987
  H       0.61680099866619     -2.59334621139673      4.45716132469795
  H       1.13275082733442     -2.57965031815709      1.76074663360446
  H       1.66210257268060     -1.20644310568939      2.75950069699809
  S       4.09229311835421     -2.33517841675598      1.03436489177244
  C       3.37029868543635     -0.94292873655940      0.68674495641898
  N       2.76415457926607      0.04922662141228      0.42372918695672
  N       1.02365057307614     -1.96330467281777     -1.11789362466593
  H       1.83589653832474     -2.41046559506875     -0.67524361168615
  H       1.29744061204270     -1.76009493571605     -2.08296156470413
  H       0.28638315511835     -2.66661070726651     -1.17052979715474
  N      -1.84914792776589      0.00186497065694     -0.77648100856154
  H      -2.22191541562721      0.85756080160792     -0.35353747210494
  H      -2.44012073957586     -0.77110894729172     -0.47198990128195
  H      -1.96297759088599      0.10560582885599     -1.78660094153649
  Cl     -0.41877007161203      2.41759738479407      0.92052741337764
  S      -0.12739443004584      1.39892629774851     -5.06528081154070
  C       0.28056933103560      1.08663934072296     -3.55711026621601
  N       0.56871569150223      0.83529421659822     -2.42438065626154
