18
Coordinates from ORCA job orca
  Th      0.03140000957121      0.31668401201405     -0.31989927930578
  N       2.45636514690176      0.07566111651114      0.31526119806493
  C       2.69705982854832      0.28600940905385      1.78468085804435
  C       1.61075638837315     -0.40816719399718      2.56789153575700
  N       0.26697676683370      0.12648173130673      2.13703890972818
  H       2.84268503580283     -0.84875782625950      0.05873682228018
  H       3.06294315175407      0.72999740671867     -0.20699259223513
  H       2.70833648271487      1.37197265890330      1.97764841036595
  H       3.68974190953910     -0.09859819369832      2.07209506391363
  H       1.74650991673977     -0.25423456598918      3.65151670136951
  H       1.61538275342259     -1.49955921110684      2.40055876286954
  H       0.15511324167924      1.06997685462793      2.54381229073933
  H      -0.46247859629797     -0.42430416073780      2.61650817198492
  I      -0.13795653597710      3.08204874651680     -0.33638015204662
  N      -2.43462063719831     -0.08509499379751      0.14249118011907
  H      -2.84630447036424      0.55185635605991      0.84475593759260
  H      -2.74456046574715     -1.02463839336623      0.44251102303458
  H      -3.01414992629585      0.09866624724017     -0.69643484227626
