17
Coordinates from ORCA job orca
  Fm      0.41718563455953      0.51150473617375      0.38297416917181
  O       1.32753161086969      2.20322782546559     -0.48546102258762
  H       2.29780783110934      2.06373353590089     -0.43446507711192
  O       4.09131414491414      1.44548075236593     -0.16349700662231
  S       3.85275556539723     -0.06593875179111     -0.31783292247485
  O       4.92624652133748     -0.81158968005873      0.46600098116297
  O       2.46084560517410     -0.34770532387640      0.46408236286913
  O      -2.18172723791742      1.46022385593222      3.53401005734540
  S      -1.13367173215224      1.97504438894192      2.56690421556957
  O       0.13242948887641      1.02027665056065      2.64411627715212
  O      -1.58351327846712      1.67688723176259      1.08777116823938
  C      -2.42474038967223     -3.43449721673344     -2.77760362031615
  O      -3.61054817842994     -3.53846315363137     -2.99487647211196
  O      -0.66625293485967     -1.89348010163256      0.13925960878332
  S      -0.66647686470754     -1.88156976389192     -1.39014802735957
  O      -2.22142955596431     -2.18281901421276     -1.82337111446943
  O      -0.46195623006745     -0.39091597127527     -1.74256357723989
