28
Coordinates from ORCA job orca
  Pu     -0.01008731243310      0.15606341647568      0.28566484107998
  C       3.05570502186713      2.33874400056878      0.69760262051644
  C       3.20241649470449      0.83306299923328      0.84625034159337
  O       2.05980232564871      0.15039903306066      0.48331478959770
  H       3.98430416653939      2.86125596192101      0.98578726094975
  H       2.23415972374069      2.69790734887891      1.33934119764108
  H       2.81300720560891      2.60111578954719     -0.34533411188261
  H       3.46445597923217      0.60129390641659      1.90077528958788
  H       4.06066209334471      0.48457029448986      0.23135802056735
  C      -0.61359871333305      3.20237873121107     -1.13500123761659
  O      -0.27017282864327      1.93016362553994     -0.75245039540275
  H      -1.71580289485812      3.33645359381095     -1.17481082320682
  H      -0.22527466627621      3.44334401038673     -2.14583952971048
  H      -0.21994885873489      3.96670779225677     -0.43536137792627
  Br     -0.28219328224489      1.35048921915989      2.80842855254729
  C      -3.05214422074667      0.67686224351505     -2.15836257411023
  C      -3.26400374643380      0.70638859572332     -0.65767057567458
  O      -2.43177772205153     -0.19905357846047      0.02982221710793
  H      -3.74567965177515      1.37281182934625     -2.65995693955336
  H      -3.21642827457148     -0.33921007016573     -2.54944108569764
  H      -2.01629889330483      0.95838409481413     -2.40086051107160
  H      -4.32140343516745      0.48188620369694     -0.41323657078929
  H      -3.05345709604198      1.71166545582702     -0.25340396523324
  H      -2.49930063034260     -1.13040937730800     -0.39515414524990
  O      -0.17886406606898     -1.03458972823561     -1.64272704053891
  S      -0.64352490347570     -2.43146042662620     -1.03015078022900
  O      -2.16132170596809     -2.44660976154613     -1.12607066329637
  O      -0.32783010821441     -2.07801520353794      0.49378719600087
