25
Coordinates from ORCA job orca
  Cf     -0.18944834842534      0.55613657054661      1.68780984572019
  C       2.54706288136513     -1.20896901362126      2.29770114708693
  C       1.88730040503565     -0.60965010777559      1.07633672165501
  O       1.97956686670060      0.64735307573462      0.94815371175257
  O       0.90347308281734     -1.22533260268466      0.58766401033228
  N       1.55821813038984     -0.74527092232628      3.32261212274462
  H       3.54755188524172     -0.79839387347670      2.48555535878691
  H       2.58499732056620     -2.30463006742672      2.25204690863375
  H       2.01573229219752     -0.11878604288303      3.98718370204946
  H       1.22368802112576     -1.53717747447474      3.87342784668334
  F      -0.59728927402305      2.52789481754257      1.61754385340412
  C      -4.63285295823067     -0.38978140553790     -0.19655998263604
  P      -3.14945163616545      0.61221374457752     -0.26405709014085
  O      -2.10797968123830      0.06832832038027      0.75939617846828
  C      -3.55839076276469      2.31618728082090      0.11741586212778
  C      -2.46984886777116      0.53228438358880     -1.92343013065143
  H      -4.37842826257664     -1.43240368542833     -0.43961926157219
  H      -5.38253010696988     -0.01899568830576     -0.91206655703607
  H      -5.05064106563485     -0.35064686039186      0.82062026930240
  H      -4.19029886397924      2.75356453960676     -0.67034248740899
  H      -2.62358479565360      2.89114952229349      0.21804988574439
  H      -4.09445451696819      2.35631348782935      1.07785526840043
  H      -3.21413759420967      0.85809546802927     -2.66610815346517
  H      -2.16712333322580     -0.50385960881844     -2.13932303879501
  H      -1.58593081760311      1.18537614220107     -1.99236599118681
