29
Coordinates from ORCA job orca
  Th      0.17449282145463     -0.76900191498490      0.43765628945634
  N      -0.13962368095996      0.17286769977563      2.78354505271590
  C       0.04764866014081      1.65828490385307      2.84252924445488
  C      -0.63283631309105      2.30207449328291      1.65831727037371
  N      -0.08013126991952      1.77420482292300      0.37235000414719
  C       1.23651172039489      2.37234669661079     -0.02032420948176
  C       2.30782668198939      1.30891483862932     -0.17028170625397
  N       1.85794638439374      0.24386840860870     -1.10156176560700
  H       0.41493486836349     -0.25456970512205      3.54083385994126
  H      -1.11192209807306     -0.03191084514335      3.06624246434169
  H      -0.36227220389934      2.06259606946410      3.78268363215337
  H       1.13038631858378      1.86775837316224      2.86026577917754
  H      -1.71603602140934      2.09160719370315      1.66970769206534
  H      -0.52680514463073      3.39951732606654      1.70258002288406
  H      -0.75345990499517      2.03781675516497     -0.35482755540972
  H       1.11757495990312      2.92297515996797     -0.96899668149902
  H       1.55946305761060      3.11764732057868      0.72428490428146
  H       3.26467733657744      1.75848616506128     -0.48822825987017
  H       2.54468710636815      0.83277094612097      0.81403810884030
  H       1.49836331648983      0.64814630279807     -1.97894540391862
  H       2.65779333523887     -0.33318944730465     -1.40187788648154
  N      -2.24482007875532     -0.55645841288563     -0.92101060891392
  O      -3.25947789410408     -0.49815877260921     -1.46474781831189
  O      -1.07223369943593     -0.50013352706085     -1.48419369779818
  O      -2.09353362639590     -0.68905783573655      0.37890302507369
  N      -0.05391500870467     -3.34520267105877      0.24611848499048
  H      -0.23663483028946     -3.66339589976006     -0.71927623898804
  H      -0.84657388577661     -3.73672571041668      0.77956837011768
  H       0.74566909293137     -3.92767873368874      0.54124762751890
