31
Coordinates from ORCA job orca
  Am      0.31199996674122      1.58008766050379      1.14848729343259
  F       0.40485518386396      0.79725476128908      2.96457607688104
  F      -1.03793630604038      4.85925278624283     -0.26306149460658
  P       0.05050229926098      5.07970096274243      0.84904191927549
  F       1.08372728968710      3.90163564396985      0.27054147909583
  F      -0.56201972812023      3.93598856089603      1.88424632658191
  C       4.19553137415800     -0.56180547492349     -0.30190736807862
  C       2.70130130616413     -0.47155590352054     -0.41484087224942
  O       2.12087325961676      0.15700663357470      0.77881564707114
  H       4.59795933804684     -1.03383122440533     -1.21131882474572
  H       4.49950328273754     -1.19442454059676      0.54815142256884
  H       4.66100078637681      0.42972276106395     -0.20054251330606
  H       2.22745628703424     -1.45922333897746     -0.52713517442316
  H       2.38501953920344      0.16490399586152     -1.25572374840396
  H       2.49748629764735     -0.26376246585575      1.57135664342252
  C      -2.63743903229152     -2.57165018276987     -0.03689901528778
  O      -2.63130840646380     -1.17655066831408      0.32927497843513
  P      -1.64212061666918     -0.07258811380942     -0.26111270618042
  O      -2.21939777917403      0.40929511856639     -1.65510604122326
  C      -3.58989713087613      0.41791171278554     -2.11002138335836
  O      -1.99961377153020      1.15265980566580      0.86237287070557
  C      -3.28496773471010      1.41166346607491      1.49222468147632
  H      -3.44546891642285     -3.03192655466364      0.54349754766738
  H      -1.68011663552845     -3.04177268384639      0.23062737930699
  H      -2.83969034994505     -2.68991479321181     -1.11135955410264
  H      -3.59836153428219     -0.00793204753351     -3.12106948937539
  H      -3.93479914461931      1.46017399215994     -2.14783067091305
  H      -4.22795766187812     -0.17744136368524     -1.44178153295936
  H      -3.10474346459979      2.10656055787925      2.32189464303100
  H      -3.69289550959334      0.46493357304150      1.86832784145637
  H      -3.95858248779365      1.86772736379577      0.75377363880565
