25
Coordinates from ORCA job orca
  Lr     -0.68449410681442      0.75982421524555      0.10967774616622
  C       2.57877592781895     -0.15427788971223     -1.10830200568022
  C       1.95424015963726     -1.28922578033032     -0.32246940755425
  C       2.74699142309634     -2.44975214550299     -0.13500301818176
  C       2.44114238543975     -3.64625520536056      0.57381405236011
  O       1.42036962087986     -3.96354993290883      1.18367328730805
  C       3.57418627649611     -4.70392865070317      0.57156012241337
  O       0.79099992919184     -1.09396207319013      0.10158019623960
  H       3.60494105320835     -0.36560714606039     -1.45103776147904
  H       2.53638506317467      0.73952781835846     -0.45220921992217
  H       1.94175594765914      0.07018225935441     -1.98230398893576
  H       3.73873818282044     -2.41083258137125     -0.59834782738556
  H       4.47048584839786     -4.42158794312186     -0.00570206005382
  H       3.16782693665210     -5.65019471685371      0.17301838682452
  H       3.86833423237294     -4.90422779553118      1.61713822139286
  C      -1.09522545987076      2.83300979220860     -1.23043453502509
  N      -1.24297793670031      3.79187779080477     -1.88636363696472
  O      -0.42816950519583      1.19141462308502      2.30321691301790
  S       1.08230180574482      1.71256215703882      2.32656178758793
  O       1.09801097261748      3.09330738263690      2.91456355335417
  O       1.30018720025320      1.82313395819686      0.75091552062004
  O      -2.72765686998505     -0.04788972225893      0.54378716707697
  S      -2.94658701665398     -0.92842383262375     -0.78033023163224
  O      -1.65430849535433     -0.44950872196865     -1.57777597947377
  O      -4.17235357488656     -0.42701585943131     -1.48532728207335
