38
Coordinates from ORCA job orca
  Pa      0.24200485138630     -0.16600489496466      0.33103073965554
  N      -2.10502876661912     -0.36802830522254      1.14366775759615
  C      -2.98190289325924      0.77260442634333      0.73054377785921
  C      -2.46473429568014      1.39214078804479     -0.54832677096217
  N      -1.06465084822836      1.85745678641642     -0.33846240205832
  C      -0.48178438515367      2.59064725749662     -1.50383555346124
  C       0.33009110995233      1.66202887906774     -2.37645065014173
  N       1.37946844118102      1.00440928356646     -1.54038907871342
  H      -2.48103592647675     -1.23337043710849      0.73028420927218
  H      -2.20254791079962     -0.51268744648644      2.15762319670123
  H      -2.98752164630173      1.51317406894187      1.54716533862122
  H      -4.02223458175687      0.43445699810507      0.60234461654470
  H      -3.10798063982228      2.23812803177880     -0.84650612886020
  H      -2.48159309848931      0.67179401424181     -1.38619570890273
  H      -1.08613636412330      2.51405526089510      0.45106732957755
  H       0.15088273337823      3.40423905485224     -1.11189951018285
  H      -1.28074584180458      3.07104639910320     -2.09246272631011
  H       0.78677450356046      2.21958255947071     -3.21082051392546
  H      -0.29161924316431      0.86990920729025     -2.82656484863215
  H       2.06952046478969      1.71225140351648     -1.25029829927984
  H       1.91622722505044      0.35593678411747     -2.13417061276915
  N       0.93274983750924      0.83215505776231      1.99399323743512
  N       1.41651569638963      1.38318444803663      2.99752944392475
  N       1.85434065337337      1.87989540178161      3.89961204535176
  C       3.05321933486549     -2.85910619313544     -0.14225139096571
  P       1.91316429930274     -2.40933858826361      1.20345212072996
  C       0.90466989438180     -3.87765940477591      1.56808884850686
  C       2.93386351152643     -2.08600669082351      2.67133520563586
  H       3.66513427628614     -3.71543007411552      0.19392443090238
  H       3.74137039398333     -2.03175729548170     -0.37859701962664
  H       2.50206722175387     -3.16349539645522     -1.04528098713281
  H       1.58544664118434     -4.70274800709479      1.84380609199839
  H       0.32310714362950     -4.18684612206073      0.68633056944923
  H       0.23047315828168     -3.69811013106441      2.42031841000441
  H       3.53587994109636     -2.98644219727547      2.88568011491710
  H       2.30443090237410     -1.87765482216105      3.55017093630685
  H       3.62435896556626     -1.24656863459736      2.49604792650416
  Cl     -0.41784475912352     -1.82884146974202     -1.34290414557012
