30
Coordinates from ORCA job orca
  Md      1.01152219879628      0.19634718343218      0.30354690075994
  C       1.44627213099729     -1.35069263425328      3.23804080442929
  C       2.24038467557611     -0.45398481954498      2.31931181182847
  O       2.70418866570959     -0.97686048961862      1.26682470079614
  O       1.96242810434224      0.77789489501724      2.33495844552142
  N       0.19715254165888     -1.38618202483443      2.42738803887789
  H       1.27987561556428     -0.89917033883801      4.22440849748711
  H       1.89551061536815     -2.34636335969535      3.34618458776998
  H      -0.60305461742416     -1.06711271875894      2.97305831498055
  H      -0.01328947626011     -2.33765401510456      2.12779848821381
  N       1.19680871111783      1.62823159284461     -2.02613812325995
  O       1.31527905473606      2.27327444894700     -3.00541334330461
  O       2.11034514859796      1.54173364575949     -1.12893051261478
  O       0.15351020690147      0.94483717447548     -1.75118435695121
  C      -0.49867623130975     -3.68619543236533     -2.45866725228198
  C      -0.08045104202519     -2.66393786176439     -1.52939758109998
  N       0.25233998339833     -1.83907441315856     -0.79133239693481
  H      -1.08364761056542     -4.45613366290237     -1.93347643649319
  H       0.38659165754747     -4.15332943989999     -2.91653502238637
  H      -1.11787918680176     -3.23380117163817     -3.24842311378567
  C      -1.44734263271334      3.33069504170938      2.79255363499914
  C      -0.49866982484017      2.40518826764525      2.35925544361718
  N      -0.62047015195502      1.81494924439107      1.16141252507713
  C      -1.67414108409877      2.15598428118897      0.40445812284459
  C      -2.61318787970010      3.07788395229999      0.86504287282002
  N      -2.50049078931770      3.65850294664115      2.05356761450107
  H      -1.33945890488108      3.81508091111942      3.76896728029494
  H       0.37363211835270      2.13255193383882      2.96009589387774
  H      -1.75626234011957      1.70447882564248     -0.58918259973522
  H      -3.47351965665246      3.34895803742447      0.24380676015128
