16
Coordinates from ORCA job orca
  Md     -0.06349229898424     -0.24112520681065     -0.65437103904288
  C       2.40774950045435     -1.35458322079859      1.04874567725554
  C       2.48692513173106     -1.95982278437475     -0.35758580598490
  O       3.35320958904979     -2.73426362136734     -0.65646464096857
  O       1.49968309485125     -1.56025438462793     -1.12809823471197
  N       1.65284164462782     -0.09114349680528      1.03243025522221
  H       3.41981167090897     -1.25176490305240      1.46878633023369
  H       1.85884446629312     -2.07887429755166      1.67338506549831
  H       2.27140159788862      0.69065026035509      0.80228212896818
  H       1.26008973486736      0.12496778225490      1.95034600994836
  C      -0.30605841990421      2.45204683767543     -2.72161790036978
  N      -0.21591338360660      1.41521051299160     -2.16210090984531
  I      -2.03318787128882     -1.56171400520483      0.97248476161745
  O      -0.65711011802515      1.76301225366720      0.57008564616531
  H      -1.48778885509851      1.65928515449597      1.05843222285789
  H      -0.81280251062649      2.43120417763236     -0.11916738680475
