42
Coordinates from ORCA job orca
  Cf      0.33768828952994     -0.70297636559192     -0.21402330129902
  N      -0.05607259104747      0.12651290534040     -2.58565866170359
  C      -1.04622389092178      1.18651359802026     -2.71677733602437
  C      -2.13652052382561      0.99649389993411     -1.67317150753286
  N      -1.62217775102016      0.92614651732447     -0.30533786219480
  C      -1.37092088335086      2.18091706732064      0.39126921874812
  C       0.01820477377845      2.75086054081823      0.13072286215763
  N       1.03662673029504      1.73928032836994      0.37861393778855
  H       0.74457188362333      0.28872252162970     -3.19571612807605
  H      -0.47397718099112     -0.78469301845008     -2.89735516856215
  H      -1.52904077101871      1.19757294590719     -3.71269383357003
  H      -0.55679556349664      2.16779218325382     -2.59898250165525
  H      -2.61979005447756      0.02608031851348     -1.87197821869177
  H      -2.90047350986907      1.79224431638325     -1.77875456043289
  H      -2.26157738102023      0.34702472696308      0.23842807958663
  H      -1.46067288378016      1.97649810517390      1.47185645904321
  H      -2.12917313596058      2.95105670718933      0.14443621472601
  H       0.13845614486387      3.65247133890784      0.76272068737552
  H       0.10515249760210      3.09172081686426     -0.91333444499154
  H       0.98944024815393      1.41515561696652      1.35393876462644
  H       1.97543130118665      2.09775048114759      0.21176002251085
  C       3.83468739949772     -2.44696839679665      2.45444567290827
  C       3.07199322323746     -2.30134853629500      1.15735318271440
  O       2.47420488260037     -1.01916545693787      1.04443275367700
  H       4.31947992851392     -3.43401092009675      2.51200659352195
  H       3.15910390471758     -2.35449442215281      3.32115767550560
  H       4.61212104504061     -1.67194951858613      2.54182227661746
  H       2.30307279502505     -3.09150606450790      1.06153235686268
  H       3.74306705037759     -2.41377664344654      0.29162681403634
  H       1.81496522170047     -0.87469429864525      1.78772569351676
  C       0.05804247105775     -0.40632330389587      4.41512596478437
  C      -0.61108824675622     -0.67406628610971      3.07856620747411
  O       0.24288738421789     -0.42671518970256      2.01435524282090
  H      -0.63116541184638     -0.58189637923799      5.25720217865804
  H       0.41175418849160      0.63678920971453      4.46918775585716
  H       0.93325154585931     -1.06411272432135      4.54857458573590
  H      -1.52437862684643     -0.03812263874126      3.00856176368304
  H      -0.98373730624920     -1.72052421194285      3.06279047824382
  O      -1.48005981131236     -1.92136432867131     -0.51439674583719
  S      -0.86516960441154     -2.95460245419879     -1.60173764171469
  O       0.68298871988314     -2.57230496745985     -1.37436529269147
  O      -1.23397650105171     -2.38838801995411     -2.94433023820314
