36
Coordinates from ORCA job orca
  Cm     -1.31536834600261      1.00581765774776      0.70173698912783
  S       2.47112264721605      4.06772020749164      2.41401937599981
  C       1.10369884603681      3.27683908170550      2.02941558658757
  N       0.14427334444524      2.65740053233578      1.72782269402085
  C       2.92373335168100     -0.90518557115518     -0.92640767934979
  P       2.23374191491384      0.52423071178003     -0.05186613814622
  O       0.74504069380145      0.62346819051164     -0.37681045869939
  C       2.63138203321073      0.29023619979535      1.68832154821498
  C       3.14606010257830      1.96883672978499     -0.62674468558000
  H       2.68263029746307     -0.81383575869348     -1.99619376917038
  H       2.44439310624929     -1.81497408340232     -0.53374370035194
  H       4.01394172147801     -0.97556450086872     -0.79326722519913
  H       3.62556949832564     -0.17378027954538      1.78338444745265
  H       1.85341251468429     -0.35413969537915      2.13800037032364
  H       2.63314334341433      1.26616741002925      2.20125651452786
  H       4.23091968650685      1.79424145619539     -0.55489820494940
  H       2.88627380389945      2.83242274640573      0.01103275108523
  H       2.86416297930208      2.17451130548322     -1.67023322196487
  O      -3.04261762732055      2.62853248548090      0.67173646668250
  S      -3.56689608861331      1.84255137387090     -0.58781882966628
  O      -2.21128144746676      1.67123282386137     -1.38981053132560
  O      -3.74343261454339      0.41441224609647      0.01233303051527
  C      -3.09792467841548     -2.57858641360433      0.38664232477359
  P      -1.78913363864461     -1.68077278669177     -0.52593571349197
  C      -2.47975170482197     -1.63296057199848     -2.22360915407949
  C      -0.47532351388189     -2.96685041999149     -0.65948760463007
  H      -3.35531299202258     -3.53802359837907     -0.09390782041721
  H      -3.97235051362442     -1.91052702131538      0.41668086365809
  H      -2.74756121063375     -2.74630458602158      1.41686692310254
  H      -2.78614975068737     -2.62808821181096     -2.58936226032201
  H      -1.74294886604729     -1.18811252921345     -2.90981299262946
  H      -3.34566668496172     -0.95607067077483     -2.17255868831792
  H      -0.85887636956002     -3.93944561685884     -1.01290380063258
  H      -0.02840624838584     -3.08792025867486      0.34098198033742
  H       0.30480354692319     -2.61518852326277     -1.35357217272791
  Br     -0.75420113649615     -0.94579006093382      2.75351278524181
