25
Coordinates from ORCA job orca
  Am     -0.04569951114008      1.64137473944316      0.98136616433773
  C       1.72559821147561     -0.97646053678256      2.34299590862232
  C       1.51038452689642     -0.33097406330256      0.99547143039154
  O       2.09101509471458      0.77502147901048      0.79984232580715
  O       0.44747769488333     -0.59925503468854      0.36556388295996
  N       0.88223326640290     -0.05539254010835      3.15085648522481
  H       2.77857314814490     -0.94711952292062      2.65210926445310
  H       1.35136404696483     -2.00773004843053      2.37674198303973
  H       1.44308708324470      0.40907394444475      3.86536936714970
  H       0.15254198750428     -0.56817180098892      3.64517310688738
  C      -4.58155442128716      0.45140328659702     -0.15510375389577
  P      -2.88609546789707     -0.12485301773277     -0.11900358445952
  O      -2.06558404216610      0.77785800686144      0.86050543654671
  C      -2.20199125192910     -0.06308445522090     -1.77441020169766
  C      -2.82400838705452     -1.81883490558935      0.46421837161859
  H      -4.59885446695023      1.48763678387101     -0.52598546853447
  H      -4.99822131147679      0.42800023547554      0.86301068508218
  H      -5.19237777240306     -0.18218971333102     -0.81608485802849
  H      -2.83083819903418     -0.63971444496210     -2.47030412879407
  H      -1.18692634684965     -0.49028556384931     -1.75479101890255
  H      -2.13979060679859      0.98635719652499     -2.10351242850719
  H      -3.38005070188687     -2.48713945133664     -0.21078923482970
  H      -3.25632242143522     -1.87786427848963      1.47431555817089
  H      -1.76521284463009     -2.12035505422012      0.49573101937571
  Cl     -0.39744730729281      3.04539875972551     -1.05018631201810
