18
Coordinates from ORCA job orca
  Cm     -0.46742988760521      0.23499136566832      0.28021173380153
  N      -0.30985824361076      0.26045523997675      2.79050709164727
  H      -0.13243493399533      1.24097388153966      3.03471215659973
  H       0.49538157136141     -0.26576322401433      3.14103423396155
  H      -1.10419548603249     -0.03196102983138      3.36609688391046
  F      -1.58075200845917     -3.83500912070507     -1.18020632999219
  P      -0.27408798662666     -3.02249768694036     -0.87182782982745
  F      -0.74458168694823     -1.62885686363015     -1.60042334367046
  F      -0.75338782036530     -2.41550267172258      0.58750997579423
  N      -0.52742843402536      2.98886448079360     -0.16265651690304
  O      -0.51587924034793      4.14790639133496     -0.36104753277006
  O      -0.83335398472189      2.12035067158322     -1.05332705464724
  O      -0.23528749985818      2.46349869232998      0.97243342275620
  C       2.80842128583198     -0.30246821426153     -0.37986916375619
  O       1.44943850112307     -0.26407152349476     -0.03699012819192
  H       2.93070064165299     -0.49565283094507     -1.45860737390429
  H       3.32301395665279     -1.10104710291181      0.17954853222167
  H       3.29642125597427      0.65698954523049     -0.14359875702984
