24
Coordinates from ORCA job orca
  Np     -0.26349537399558      0.78060622803651     -0.03123668384698
  N       1.25264645348911     -1.48853734230784     -0.76920807410934
  O       0.55085691279374     -0.80831044258524     -1.55608174849033
  O       1.14057971407874     -1.07452352552310      0.41130920136951
  N       0.34340948801044      0.79378324502057      2.39242711871114
  H      -0.45959301317399      1.05298747578792      2.97262495559598
  H       1.11485985425398      1.41043781811373      2.66097891732007
  H       0.61783762345171     -0.14981950317045      2.68353981480472
  O       0.50288433953767      2.61117825373636     -0.28546592131754
  H       0.94949987444178      3.43751143331863     -0.50780212012720
  C      -7.00489356830114     -0.55986743837811      0.14462522331924
  C      -6.40876529105444     -0.14145442619090     -1.04830041931381
  C      -5.05923376959837      0.17964464135264     -1.06880169215720
  C      -4.30945857755184      0.07765674411631      0.11579550602347
  C      -4.90978303751595     -0.34345061678938      1.31455961422461
  C      -6.26004438433947     -0.66122508062245      1.32338152335413
  C      -2.89993315307175      0.39875471659836      0.09234985216301
  O      -2.29669959919305      0.76976551588460     -0.98060909533537
  O      -2.14926819351700      0.31786847675728      1.13606409835186
  H      -8.06861720246017     -0.81210271576059      0.15611050967127
  H      -7.00325943769631     -0.06854043150644     -1.96173427141172
  H      -4.56963606076319      0.50824244422886     -1.98844314343973
  H      -4.30717048537227     -0.41758020179400      2.22256965850615
  H      -6.74002311245246     -0.99032526832326      2.24774717613404
