37
Coordinates from ORCA job orca
  No     -0.04169671905939      1.42046778447882      0.41930124086886
  C       5.27728772137098     -0.90090019870186     -0.19498516727726
  O       4.17083124276171     -0.29332699101742      0.43999687438913
  P       2.65616918042473     -0.56018585784080     -0.14350209089472
  O       2.31402728098158      0.81835611297170     -0.96791296047331
  C       2.96728810090950      2.08629520402114     -0.76104305232142
  O       1.82219001087182     -0.09792393911586      1.21835231231573
  C       1.62217001886046     -1.00043471211243      2.30165771628928
  H       6.04459655305905     -1.09316198758000      0.56842443532307
  H       5.70356586068498     -0.23620721089786     -0.96483483793468
  H       5.00166353718526     -1.85891676076551     -0.67125649253916
  H       3.36059712140288      2.41728708031399     -1.73315613117005
  H       3.79285877882054      1.98064628729346     -0.04255439049817
  H       2.22010820685018      2.81248229730503     -0.38779146494517
  H       0.67726165581702     -0.69636889230564      2.77619984878992
  H       2.46620292886392     -0.93481397652920      3.00530862224635
  H       1.53417586080070     -2.03809552316089      1.93280095717869
  C      -3.78055113395492      0.16420759239988      0.72667857521835
  P      -2.65943910924996     -0.58545624726659     -0.46449884274726
  O      -1.63006017480595      0.40965981071437     -1.00435079824924
  C      -1.88535021927476     -1.96477601810648      0.40026735028158
  C      -3.64067158370247     -1.25910508386705     -1.82395349662049
  H      -4.23741599221656      1.06266394103927      0.28503642498904
  H      -3.13505090378509      0.44140311435339      1.58048194423068
  H      -4.56524943472429     -0.53881614819188      1.04537432949093
  H      -2.62663043970728     -2.71052827874352      0.72549867236902
  H      -1.40163986847336     -1.49064807341140      1.27430500957815
  H      -1.13746321957271     -2.43924715844539     -0.25327056543074
  H      -4.39014541666995     -1.97942694191150     -1.46258371920615
  H      -2.96569367361654     -1.75652504877018     -2.53656337655724
  H      -4.14563726098055     -0.43054642423615     -2.34327979039706
  F      -1.06149507359255      0.41530707158183      2.08581014463065
  C       0.33943666185142      4.89082154205155      0.38921148126831
  O       0.31778084250263      3.52785864549268      0.38597961920770
  H       1.30269888570857      5.31103699972278      0.00817798797200
  H       0.20193509247450      5.33589487016560      1.40205591090534
  H      -0.45295531881616      5.34742311907207     -0.24928228028067
