15
Coordinates from ORCA job orca
  Pu      0.53725725075135     -0.87343858852128      0.51780082513072
  O       1.92906542697549     -0.10386722311175      2.13146804715533
  S       3.26826202466725      0.00076230987904      1.25046211567080
  O       2.81580883589367     -0.90705930324382      0.03978497307032
  O       3.26358069002831      1.42678123435550      0.70580323469836
  C       0.20021741338432      2.42295176090500      0.36389345993698
  O       0.94170739150430      1.38755908862916     -0.23861540767383
  H       0.18762321824385      3.32343567678599     -0.27739084919951
  H       0.63436122295075      2.68961483620328      1.34330877074072
  H      -0.83317740382563      2.07989399696700      0.52500837727464
  H       1.94437511559799      1.50900476290696      0.02911603531505
  F      -1.35336451623159     -0.22256471965729      1.17345336785284
  S       0.07614898798289     -3.90248015765340      0.83973730615037
  C      -0.14780423340721     -3.19517497481884     -0.62694396774736
  N      -0.24626142451577     -2.46601869962560     -1.55358628837545
