20
Coordinates from ORCA job orca
  Bk     -0.45727032579870      0.37373460755944     -0.01483455572841
  C       2.88882051065948      2.38501293439146      0.11647527772234
  C       3.07025451352593      0.88876644892705      0.00253501586217
  O       1.93809287701242      0.17166713772059      0.47506008960543
  H       3.75626277016499      2.91214571941424     -0.31024427443754
  H       2.79259995906532      2.69308072439076      1.17068097900042
  H       1.97791160355483      2.69950597956089     -0.41860929181393
  H       3.96641528013103      0.54774296842517      0.55100007190555
  H       3.20252704211197      0.58637579401102     -1.04804670077690
  H       1.70029481654746      0.43189582553193      1.39199977158995
  N      -2.65747508809586      0.85747145302230      1.11351447250174
  H      -3.30214729968490      0.06991537080462      1.18453043698685
  H      -3.19228313179019      1.66415304111989      0.79285179843940
  H      -2.30952234387131      1.06316044208688      2.05313547397560
  O      -0.39794639700390      2.09222331101454     -1.16790788823718
  H      -0.40539166173135      2.81780822957463     -1.79051881208758
  N      -1.14913873718150     -1.58487442173880     -0.88274582239519
  N      -1.41952386427295     -2.59837227997771     -1.46142536453170
  N      -1.68393362707079     -3.56589484461296     -2.01060458432284
  F       0.03189530782080      0.71857878300914      2.05301290900482
