35
Coordinates from ORCA job orca
  Es     -0.06065132234164     -0.05322197420651      0.12995243894461
  C       3.32089741384472     -0.01406380545675     -0.43473654289883
  C       2.98769019572086     -1.47988367477374     -0.05904550309367
  O       3.93481415134843     -2.27725671079466     -0.00231238755564
  O       1.76582275400570     -1.70684640200360      0.17426756645807
  N       2.15643167619738      0.67380204159573     -0.89427314186025
  H       4.18362163582824     -0.04926207174169     -1.14120358136496
  H       3.68716777616327      0.46002529815810      0.49542869191253
  H       1.67789868177590      0.26002351012865     -1.71857234180318
  H       2.16030627387812      1.68748177316311     -0.92535266035455
  C      -2.36496527712738      1.97801606347102     -1.37378480619346
  C      -1.06053384663681      2.80646763695876     -1.34376623688517
  O      -1.09251579626824      3.94451122441818     -1.83323125959274
  O      -0.07791755296275      2.23901297789979     -0.78033750193866
  N      -2.10982063853951      0.57688229466908     -1.24942767295971
  H      -2.92862950756325      2.29189606747560     -2.28345728754863
  H      -2.94470089086646      2.31207784660930     -0.49309354461018
  H      -1.51801630238747      0.13230406152703     -1.97895254881008
  H      -2.84547016867924     -0.01425157248700     -0.88177817810602
  C      -1.91777400453550      1.03980003691235      1.70647697726561
  N      -2.85152143400543      1.49838653996684      2.25166720529210
  O       0.12112038031159     -0.50359692235110     -2.22575144091684
  H       0.05152015379867     -1.45764234822106     -2.08163126097643
  N       1.11545247984431     -0.07938329038978      2.93272915856821
  O       1.63095395386686     -0.02842579029671      4.04629938215345
  O       1.43197635784131      0.75064212120716      2.04418658993380
  O       0.27119184007508     -0.94328160303993      2.64552299196245
  C      -2.15603278413865     -3.01121519288066      1.93042617658804
  C      -1.19847501003051     -3.02989003183491      0.73429767590227
  O      -1.29801388306022     -1.91339129976043     -0.03062997385107
  H      -2.07497035188518     -3.93339334383604      2.54408912717452
  H      -3.20107466094926     -2.90969914671776      1.58186737674945
  H      -1.92515179861587     -2.13777389882103      2.56111186267711
  H      -1.42484596185409     -3.97215069673453      0.14774774570640
  H      -0.16628453205296     -3.18679971781280      1.13166690403143
