26
Coordinates from ORCA job orca
  Np     -0.41092157812054      1.45686379842182      0.73466459651614
  C       2.03320076930239      0.99283973781222     -1.55048662740273
  O       0.99104200873757      0.91262084749992     -0.60700671157867
  H       2.53517552038365      0.01607959555343     -1.62478575534518
  H       2.77308739727590      1.74979851451755     -1.24444094517686
  H       1.63218511344406      1.26457036884799     -2.53947694571016
  O      -0.11569179125924      0.27278117311565      2.77615656433233
  H       0.53268935980765     -0.15348538732582      3.35206072815571
  H      -0.78863305075799      0.75128561098505      3.31431399499369
  C      -3.62292617493565      0.24381341619140     -1.15845647329761
  P      -2.48045822837344     -0.49119678770009      0.05820025674845
  C      -3.50670127603493     -0.83924619130458      1.52422395532985
  C      -2.03021258121810     -2.12226423310299     -0.62138047713581
  H      -4.48912706940414     -0.41665062313682     -1.32286942969083
  H      -3.10490142499819      0.39833125100560     -2.11756736784236
  H      -3.96762088561031      1.22086794087696     -0.78697800742839
  H      -4.39932445099731     -1.42179115365787      1.24621269122503
  H      -3.80732166719229      0.11262696260974      1.98808499686952
  H      -2.91814584620996     -1.41115001539400      2.25788790367120
  H      -2.93210285351375     -2.72119019758281     -0.82459613997986
  H      -1.39472691274386     -2.66514576948933      0.09463923778404
  H      -1.46627144844100     -1.99236787469507     -1.55737956912900
  O      -0.22445174326101      3.32789859240838      1.94164882343777
  S      -1.82408390614616      3.33467490165614      2.00608291576680
  O      -2.04424333723711      2.86882126162635      0.45333258134937
  O      -2.07281394249615      1.97011426026117      2.68081520353756
