30
Coordinates from ORCA job orca
  Md      0.28755448886782     -0.02276466435677      0.16465837181953
  N       2.67727199075105      0.34818465757560      0.71909440473194
  H       3.15219065904324     -0.55915501654431      0.69700362269566
  H       2.94242879702355      0.79457857631164      1.59982507859102
  H       3.11345450046394      0.90836931377797     -0.01835105161488
  N       0.23600274771956      1.29245275668088     -1.47788313153880
  N       0.19869162830627      1.90835711369310     -2.51510125753115
  N       0.15576777264691      2.49056268162876     -3.48866941147359
  N       0.41439130852926     -2.59113484721046     -0.85133441673419
  O       0.44705184142984     -3.69095083230084     -1.27872148942062
  O       1.41123041977315     -2.00735519564639     -0.31699017605022
  O      -0.64354470744391     -1.86537189253013     -0.87271660605350
  C      -4.47946060501358      0.52678700281479      1.27322584871068
  P      -3.18819993879912     -0.43695785368522      0.48422924885029
  O      -1.79808237071576      0.08003671484835      0.96858867172065
  C      -3.35947208876768     -0.27600577988672     -1.29491613112041
  C      -3.39883268351479     -2.16542353428688      0.92093923756263
  H      -4.36390681584727      1.58455226323189      0.99175809472241
  H      -4.39261740496737      0.43482021181682      2.36633533656238
  H      -5.47320622613651      0.17383708780884      0.95804499881150
  H      -4.36992366195959     -0.58297563492553     -1.60684383715754
  H      -2.61508820336297     -0.92075024184270     -1.78711244514183
  H      -3.19131514126832      0.77191154096046     -1.58693497058773
  H      -4.40028812528029     -2.52035451987345      0.63309961525883
  H      -3.26779246279188     -2.29046025514428      2.00656029503203
  H      -2.63494810756008     -2.75116759985905      0.38680197983709
  F       0.58421967966158      0.71100147073502      4.50032189507841
  P      -0.56236696451804      0.51350161500134      3.43200496626343
  F       0.06462469759631     -0.83044784391245      2.74929220756092
  F       0.13066497613479      1.46552270511976      2.28889105061502
