16
Coordinates from ORCA job orca
  No     -0.04677056692587      1.33371534386788     -0.79326798396683
  C       2.26075077273403      0.15728949744645      1.22532300413933
  C       0.88616240430057      0.02134347867282      1.88394891084197
  O       0.70560280048118     -0.67902142714060      2.83956610751437
  O      -0.04132324543443      0.75633780622085      1.29464139606593
  N       2.16052847477405      0.25066732176578     -0.25083137542072
  H       2.89535577917307     -0.68027448967736      1.55091810865114
  H       2.71760838141286      1.08534550963681      1.60722996651873
  H       2.13474959001731     -0.70131391909943     -0.62953276633229
  H       3.02956662247210      0.63997025464974     -0.62461476204817
  F      -3.65274332050167     -0.73426665256159      0.24470967370393
  P      -2.29950305257226     -0.26463491906427      0.92219970711026
  F      -1.35044747228102     -0.76825988358549     -0.36395550053606
  F      -2.35777939086804      1.25475409843397      0.24225949633886
  C      -0.45864834220142      3.63767169472124      0.52313899524806
  O      -0.71470943458055      4.42147628571313      1.28166702217143
