8
Coordinates from ORCA job orca
  Am      0.16104763179604     -0.10434605949396      0.63610900665319
  S       2.74707049175995     -0.94742607972075     -0.34247883097107
  C       3.94241073144637      0.22051264858591     -0.38752647622887
  N       4.84088883943748      0.97146521058177     -0.44684529287923
  I      -2.50402346674836      0.36841287396400     -0.93487587637177
  Br     -0.22689211116808     -0.38733644738231      3.41026878270490
  Cl      0.82557448506721      2.43366016100991      0.60083405198505
  F      -0.00947660159062     -2.13284230754459      0.25181463510779
