21
Coordinates from ORCA job orca
  Fm     -0.33223197502661     -0.51037315758139      0.40134428137780
  C      -1.71099204329820      6.33839586758251     -0.13781092905291
  C      -2.46654633451113      5.54340267830767      0.72578292831048
  C      -2.22592350099194      4.17401152249230      0.79876144833616
  C      -1.22935173071729      3.59808902876039      0.00710958998342
  C      -0.47311279696379      4.39375399637081     -0.85674780294114
  C      -0.71467287843218      5.76350812591556     -0.92862205448860
  C      -0.96543100193132      2.12858273065441      0.10015090066858
  O      -1.65202347779207      1.43219311393288      0.89022388150128
  O      -0.04766261665825      1.62145774820659     -0.60311080313529
  H      -1.89900250397402      7.41486133254075     -0.19325561957654
  H      -3.24462277413974      5.99632458364814      1.34706624978979
  H      -2.79160007607377      3.51893707320333      1.46618781620475
  H       0.30048564819809      3.90855410471106     -1.45742238229649
  H      -0.12307002545572      6.38953508050704     -1.60289993170812
  I       0.14658034515703     -0.92861407795227      3.30488110961474
  O      -1.81450235275476     -1.51680099947098     -0.57345742020611
  H      -1.90937574335535     -2.43092137167559     -0.84801003235866
  N       1.81442513084624     -2.00087184184879     -0.81200430912251
  O       0.95428468313579     -2.56176780156486     -0.11379550464425
  O       1.64304602473904     -0.76245773673982     -0.91427141625639
