26
Coordinates from ORCA job orca
  Lr     -0.27553256491084     -0.66715225256818     -0.40379458845263
  Br     -0.64465169287998     -0.33064852253158     -2.86565734062458
  C       2.44886803047637      2.02515977282007     -0.23994717251928
  P       2.42148272701824      0.20045199148354     -0.25227967515974
  C       3.44924151187212     -0.31918829280502      1.15918155867413
  C       3.35040932023043     -0.27617488438261     -1.74696191305497
  H       3.49164120583101      2.37881668000743     -0.29102176343427
  H       1.99196027795372      2.41098024850230      0.68407133786990
  H       1.90214840466127      2.42277609882045     -1.10948723184271
  H       4.45320761242087      0.12653061376351      1.06981671810946
  H       3.55474543672616     -1.41483258409204      1.17773665005713
  H       3.00125854893434      0.01129578747458      2.10870915130286
  H       4.34044660551687      0.20813100204214     -1.73204881773035
  H       2.80830747673287      0.04303662807014     -2.65044031716199
  H       3.49930774743273     -1.36615689404456     -1.78552432735457
  C      -2.60933598117080      3.17252622402529      1.60006712695224
  C      -1.88660123768554      2.04279591269958      1.08444797509879
  N      -1.30524038076183      1.13091247314930      0.66598975930371
  H      -3.14535625569101      2.88319669249516      2.51880632505017
  H      -3.33578180952304      3.51903272551686      0.84639675374669
  H      -1.90635515741200      3.98967954689942      1.83041632898213
  C       0.94541029994963     -2.89173791489983     -1.14933222956988
  O       1.46697366774515     -3.76806591497186     -1.61058083674925
  O      -1.84330254004903     -2.25155805366568      0.28530294188190
  H      -2.55624340695227     -2.54634289365043     -0.30852564593695
  H      -1.97710784646570     -2.73816419015800      1.11575923256213
