33
Coordinates from ORCA job orca
  Md      0.77477724528656     -1.16310659697698      1.60771201286369
  N       0.20558215274275      1.38112873514065      2.49120236007479
  O      -0.05951998083393      2.48332928415995      2.81844572596541
  O      -0.68848962097753      0.49760452653307      2.22660779477155
  O       1.39613199625166      0.95240973896418      2.34193969671793
  C       3.45034414862976     -1.40134815907674     -1.62820801833554
  P       2.79223636088598     -0.32763600510150     -0.30636011463105
  C       4.26594996957537      0.39664041499714      0.48951002408259
  C       2.05698752728277      1.08789544114799     -1.20755416287084
  H       4.12258406937064     -0.83272645206772     -2.29051914545380
  H       2.62351202090601     -1.81485512134967     -2.22536958056592
  H       4.01042429730359     -2.23933306924505     -1.18624193057861
  H       4.90174428434754      0.89870916027426     -0.25725262763593
  H       4.85208384450330     -0.38975595170127      0.98879656851501
  H       3.94545694843320      1.12919421572900      1.24641784237140
  H       2.79476196378476      1.54396397216391     -1.88739785357296
  H       1.72596784376223      1.85109187504026     -0.48580642584767
  H       1.19086843154269      0.75305183399920     -1.79921391250455
  C      -3.33553973502712     -1.26050255457455      1.37634085478096
  P      -2.31741858445058     -1.16199469286172     -0.09566439547557
  O      -0.84617570744454     -1.55706797053494      0.22611287658267
  C      -2.38747815538618      0.52169334624906     -0.71772520963530
  C      -2.96272138298440     -2.27466244805599     -1.34371211515059
  H      -2.95433258211518     -0.53992118134994      2.11694672906199
  H      -3.27881998455294     -2.27812694597467      1.79238744225441
  H      -4.38355849778002     -1.02146637311741      1.13918747543971
  H      -3.42196121812370      0.80323293363750     -0.96761039490580
  H      -1.76333715596320      0.60834835311872     -1.62027890946674
  H      -2.00625390855505      1.19675408680472      0.06404076848480
  H      -4.00405381956969     -2.01936240186769     -1.59198723741592
  H      -2.91977507940243     -3.30639298997091     -0.96331734702498
  H      -2.34344235355384     -2.20342844062288     -2.25048266517920
  F       0.87876466211147     -2.57236056350987      2.99215387428402
