38
Coordinates from ORCA job orca
  Bk      0.32606068827049      1.50619929513355      0.74908066356470
  C       3.60300641736203     -0.62913305266533      0.75044285019023
  P       2.21108597277343     -0.45907795517251     -0.41951737466542
  C       3.01650520847151     -0.38537360961120     -2.06289062457510
  C       1.42247425192315     -2.10756964874568     -0.39112402098573
  H       4.20761910282352     -1.52037598108632      0.51861115673361
  H       3.19645578250841     -0.69797184865747      1.77030400201978
  H       4.24202698857666      0.26584449415046      0.70315331433888
  H       3.67876377058292     -1.25268136887097     -2.21542382674490
  H       3.61362163087412      0.53534069307180     -2.14911085021833
  H       2.25330831652692     -0.37712822504584     -2.85609888048267
  H       2.15924332117953     -2.90038629605111     -0.59707362428645
  H       0.62366916060200     -2.15492107858561     -1.14765083543389
  H       0.98176706806215     -2.25078459683473      0.60740236304427
  C      -2.51720633371302     -1.49329086498767      0.64101248782671
  P      -2.88922604905130      0.19572129042071      0.16903445201634
  O      -1.58882728364231      0.94947921163265     -0.24605732791321
  C      -3.67961730184667      1.01979129832663      1.55040444475890
  C      -4.02107611432201      0.17434380838100     -1.22531541101235
  H      -2.10479404486555     -2.03069401282898     -0.22677407320414
  H      -3.42455441649566     -2.00823067252177      0.99132770446299
  H      -1.75278441272591     -1.45611021717136      1.43739359096568
  H      -4.55267132935361      0.44700323765622      1.89777565775877
  H      -4.00168315174322      2.02492585811525      1.23821337397006
  H      -2.93017956169956      1.11885038809967      2.35540145620549
  H      -4.95286071838019     -0.34766646655015     -0.95963950248581
  H      -3.54463789683200     -0.34007278068774     -2.07330201268765
  H      -4.25387110072402      1.20827681992512     -1.52077303168676
  O       1.60839699215408      1.29688375111458      2.68675281171771
  S       0.32657572759248      0.55765383570995      3.21553317886548
  O      -0.77408742595879      1.61517712349337      2.75197085728609
  O       0.13295233959463     -0.48457878783033      2.04354306386628
  C       1.93982781789723      6.30809962018865      0.79601354461395
  C       1.44097344163997      4.97072429896056      0.58182263162996
  N       1.04315495132280      3.89793699001883      0.41872511285406
  H       2.32260583285072      6.72132691466818     -0.14902644543249
  H       2.75195906073126      6.28083760936170      1.53831388106085
  H       1.12842329703370      6.94933092547559      1.17184524206396
