22
Coordinates from ORCA job orca
  Pu     -0.29929038177333      0.21030325345688     -0.00122168346772
  N       1.66733792186183     -1.24233091365350      0.46479943815364
  C       1.72169365524194     -1.80953828593584      1.82174729677894
  C       1.35143446913265     -0.73621419423480      2.82122685897711
  N       0.02623936607369     -0.19438621892972      2.48006291228780
  H       1.69830653534114     -1.98017974101842     -0.24348568659012
  H       2.49095688080512     -0.65832500440084      0.28613647615264
  H       2.71461941824597     -2.22761651419184      2.05675728523386
  H       0.99844433457493     -2.64045200978129      1.86992241329686
  H       2.07774320424395      0.09243939937618      2.77656924836863
  H       1.38140143928837     -1.14234526246748      3.84615522257728
  H      -0.15014399043186      0.66143211543652      3.01219205541970
  H      -0.70632284614505     -0.85908595466863      2.74833133074623
  I       1.04665110827968      2.71315331869814      0.52262986880335
  S       1.22571367853198     -0.43546652261323     -4.63621012263936
  C       0.76956325916425     -0.25454920942282     -3.15381301226226
  N       0.41860436011158     -0.12023655845633     -1.99950274289745
  Br     -2.08086640227555     -1.75381127578239      0.22270915786908
  N      -2.23963941194246      1.55991719598126     -0.79528434834543
  H      -2.30908315845952      1.48194960635004     -1.81444347870022
  H      -2.15586145872251      2.55859056996515     -0.58736518854459
  H      -3.13950198114683      1.24115220629299     -0.42621330121799
