32
Coordinates from ORCA job orca
  Cf     -0.13096718955863     -0.94783246696917      0.64922623335104
  N       2.10638874988363     -0.04901589753292      0.14749819496300
  C       3.04356149972582     -1.17601810543019     -0.07293471437856
  C       2.47394412116153     -2.13862116716118     -1.09323667474551
  N       1.18148162304523     -2.68497597180710     -0.61830518646802
  H       2.15549222571592      0.59094869549077     -0.65212856658922
  H       2.42873220175479      0.50617902039799      0.94734352750006
  H       3.19726200142292     -1.68509707824315      0.89413653519055
  H       4.03318881198499     -0.81999362662587     -0.40208520183399
  H       3.20342427677986     -2.93795726097590     -1.30156713732295
  H       2.29724485630130     -1.61838130848404     -2.04981604391808
  H       1.36858655725814     -3.44632434922420      0.04424684432895
  H       0.70219016172494     -3.14986632023183     -1.39537176040117
  F      -1.69032865502274     -3.28508838511407      3.35361953973854
  P      -2.65871161593901     -3.24366907816611      2.12243263987667
  F      -2.98364233685279     -1.67122580280692      2.14644456087987
  F      -1.41527078851280     -2.98652120605624      0.99192568134454
  C      -1.86539078054915      3.27168288541158     -0.13878942172823
  P      -2.64965946421368      1.66332704175531     -0.06840317986128
  O      -1.54519693707416      0.54106487698469     -0.02424511068224
  C      -3.66125769976349      1.56256484501894      1.40616901788265
  C      -3.67138225772625      1.43184465671451     -1.51913152479857
  H      -2.63127191249709      4.06311245194891     -0.16538887301828
  H      -1.24585264140194      3.34790584778824     -1.04538418748825
  H      -1.23641207399442      3.41871073392278      0.75278809489289
  H      -4.13940055264573      0.57321807568330      1.46241841496940
  H      -4.44140949698528      2.33992763328126      1.38456193841600
  H      -3.03310589961957      1.71162858581717      2.29839899670069
  H      -4.16215140246840      0.44765295514993     -1.47740871733026
  H      -3.04964486311936      1.49074452519333     -2.42552757322965
  H      -4.44543132228900      2.21427647559563     -1.56564131224946
  F       0.32949080347491     -0.84490128132544      2.57175496600876
