11
Coordinates from ORCA job orca
  Md     -0.21785580053019      0.60943524376946      0.15723789163052
  C       0.25423673879336      0.37181359419487      2.67352125388521
  O       0.47684499535869      0.31144384775078      3.77272761946178
  N       1.78819734680320     -0.02338088620384     -0.14532281505145
  N       2.85288834956298     -0.53683133524333     -0.37496834431999
  N       3.86228325254021     -1.01423570603945     -0.58905669798107
  N      -2.30387496941491     -1.12958734165076     -0.16725668438501
  O      -3.22104923834944     -1.86096022054468     -0.31206100793576
  O      -1.80229743722328     -0.44334279532025     -1.12194821845868
  O      -1.72304125630889     -0.95145849175625      0.95573458240089
  I      -0.84283198123172      3.27930409104349      0.88289242075351
