30
Coordinates from ORCA job orca
  No      0.29890389111485     -0.39951755434086      0.42873014010103
  N      -0.34335112350588      2.21408448843787      1.83508674749205
  O      -0.32759311580842      1.10887023728782      2.42925836874403
  O      -0.11989656764731      2.14085969445279      0.61895271299966
  C      -1.15877607679371     -2.45363482072748      0.48551346667749
  N      -1.80454108820424     -3.41547727934156      0.31809739602119
  O       1.72211382055034     -0.64381239741207      2.51949565415643
  H       1.20419560928185      0.09652593088084      2.88453947486779
  H       2.42777912233412     -0.22026387717945      1.99505076094772
  C      -0.37594523411943      0.42640706873149     -5.61188961199406
  O       0.23505279834826      0.38259496289844     -4.35061583646318
  P      -0.73089352843014      0.56931441699029     -3.00596196964235
  O       0.53066402110790      0.71026358028267     -1.93603948955574
  C       1.31198629052632      1.90124518154328     -1.97981467859422
  O      -1.15658102665963     -0.95031904802712     -2.64991546306575
  C      -0.28038146855511     -2.07889526057458     -2.74010197487583
  H       0.36670053053218      0.77024493033424     -6.34863721515959
  H      -1.23770856933203      1.12106723666212     -5.63439829131690
  H      -0.73508187482155     -0.57195448498468     -5.92168664836595
  H       2.09753496681925      1.79175039013361     -1.22068789399224
  H       0.69415464701852      2.77982330694219     -1.73417099461975
  H       1.77008241617603      2.00954985408885     -2.97632562287289
  H      -0.71210771019818     -2.85689673548356     -2.09654216676532
  H       0.73281674730579     -1.83514484365809     -2.38297585474597
  H      -0.22785307323150     -2.42301579818447     -3.78630251309138
  N       3.20238553977022     -0.73478740657102     -0.49240524951308
  O       2.91374016590670      0.24969687207840      0.23161356281776
  O       2.26271056108802     -1.51764845483519     -0.69229467697311
  C      -2.36862677029221      0.12898372291819     -0.05478313809759
  O      -3.49778390028122      0.15248608665658     -0.07878899512000
