34
Coordinates from ORCA job orca
  Cm      0.72515519558499      0.30241620658654     -0.38330518091891
  C      -0.34543710629027     -1.77657883435619     -2.77830276023675
  C       0.90884731803580     -1.07420558883775     -3.33898223736722
  O       1.21793446327687     -1.28543600732919     -4.50712903521651
  O       1.48822839410608     -0.28340072023605     -2.51582695675865
  N      -0.33039114920332     -1.86398125205002     -1.33618643847311
  H      -0.46949915297965     -2.74351317227454     -3.30343179912582
  H      -1.18629030860157     -1.12097763166305     -3.05804470134410
  H       0.15015725067596     -2.67508035212134     -0.95830516271461
  H      -1.22828259746797     -1.71383246341510     -0.87488478637797
  O      -1.39696385239839      0.84776727796807     -1.68024231445326
  S      -1.96600336333076      1.22152030398357     -0.28144381132694
  O      -1.66092102697444     -0.07772469489745      0.55843595275809
  O      -0.87916910728955      2.20898668862061      0.25132348259703
  C       2.01658922715828     -0.71534983774585      4.52182320590474
  O       0.81003830717350      0.00618485843397      4.61942240729318
  P      -0.16430448315678     -0.07216884733049      3.26449393819235
  O      -1.18013527519723      1.07585120002308      3.88387330695088
  C      -2.34484368385431      1.40800960379789      3.15379287929144
  O       0.77349493726700      0.81459465610095      2.22562571570057
  C       1.16979362110621      2.14948068122177      2.51463181407126
  H       2.47977279194985     -0.73028895468657      5.52223384161311
  H       2.71951223503257     -0.24190414302597      3.81201196231796
  H       1.87227951426992     -1.75924546791323      4.18417147436739
  H      -2.12285668713501      2.19025573084851      2.40778564620246
  H      -3.09775760673176      1.77043853752782      3.87528785007375
  H      -2.73613840579576      0.54484669712028      2.58977328448318
  H       2.01308955677308      2.35588638706643      1.83989710153648
  H       1.45760231805637      2.23781305900102      3.57573301659184
  H       0.34118643723523      2.83342406416239      2.27529880020668
  S       2.87875733092568     -3.71690999288966      2.35455563404587
  C       2.21561482216208     -2.51866438984425      1.46235714934488
  N       1.72958295648689     -1.65118732432082      0.82745962939158
  F       2.47825712913039      1.51297372247462     -0.09900290862096
