27
Coordinates from ORCA job orca
  Pa     -0.55156444867035     -0.13679611404588     -0.08379400984342
  N       1.11190922633038     -2.03399288839502      1.40705750534763
  O       1.83240772994241     -2.79717031015143      1.98820931838315
  O       1.16074524392454     -0.78413644098999      1.58470129376552
  O       0.23668398036597     -2.41198958914159      0.58360851956091
  C      -3.14135053073734     -1.59467316672794      4.16735232323424
  C      -2.24321910069806     -1.29875706668344      3.07451178174525
  N      -1.58535581815943     -1.00990804796862      2.17480138964046
  H      -3.47321253161261     -2.64145073411075      4.11228863308618
  H      -4.01627303202312     -0.93086107097811      4.08531351918800
  H      -2.64113885124036     -1.42123434817400      5.13087930579639
  Cl     -2.13432500614226     -1.89522721260871     -1.10795294559667
  N       0.14398185037383      2.54447499059042      0.83137792635032
  O       0.05147063317766      1.55419750870957      1.61470907506714
  O      -0.04490790230299      2.26721399336949     -0.38573689518962
  O       0.38867000399988      3.64961252486241      1.21495942248403
  C      -0.97859218668316      1.46508566533068     -4.79027393454782
  C      -1.18334234304649      1.11434657655100     -3.40456547602656
  N      -1.29682200341538      0.82217514945859     -2.29603175654078
  H      -1.19338258792864      0.58805534681404     -5.41721663494702
  H       0.08775491021112      1.71950047056332     -4.89629888591681
  H      -1.61642211223303      2.31217025974374     -5.08053879250075
  O       0.93634621455360     -0.30637260393260     -1.21641242508431
  S       1.83598164771226     -0.38486874746816     -3.22460753484964
  O       0.75350030927896     -1.05652936808870     -3.95708744295720
  O       1.93478794059346      1.05697221317714     -3.50023688225389
  I      -3.26023123557077      1.33876301029454      0.55018360260526
