15
Coordinates from ORCA job orca
  No      0.14306092188722      0.46066908905418      0.26445996988392
  N       2.11687902206437     -1.47612715311711     -0.85098222239086
  O       2.88080752497802     -2.30835948071495     -1.31514540168451
  O       2.41350975318683     -0.81361177696597      0.16632116124670
  O       1.00042443059408     -1.25498757919877     -1.38555700610360
  I       1.58045040042178      3.23204109577476      0.97778140570603
  Cl     -1.99083820801295      0.98063132204696     -1.24047257926819
  C      -3.13052906985856     -0.88016096570450      2.02859566419338
  C      -1.74481563603602     -1.50607430134191      2.21664980214230
  O      -0.73315625441542     -0.65573379609797      1.93766668328972
  H      -3.94840152054265     -1.60352979995039      2.22132958585741
  H      -3.21841586707979     -0.48951189285632      0.99987491562246
  H      -3.25260490321321     -0.02351678535823      2.71511004759189
  H      -1.72656297849303     -2.43954514745726      1.58633591686865
  H      -1.70210761548057     -1.90158282811243      3.27333205704459
