11
Coordinates from ORCA job orca
  Cf     -0.15553197334809      1.05458170894988      1.03142389535594
  C       4.51246474203230     -0.30413646102006     -0.28994908590211
  C       3.17307678203348      0.13135321626887      0.02674813136864
  N       2.10425242968850      0.48001617740189      0.28701457433764
  H       5.22669508225238      0.49603927414639     -0.04514810324352
  H       4.58269351542937     -0.54107881813800     -1.36179627198884
  H       4.75640804082057     -1.20108384564659      0.29867560758022
  C      -1.48120536890770     -0.38626453553233     -0.33634926584333
  N      -1.95368010342686     -1.15154622724288     -1.07975222925774
  Br      0.13884475672528      0.58840985524174      3.62080662256209
  F      -0.35991790329932      2.99300965557101      0.59762612503103
