33
Coordinates from ORCA job orca
  Es      0.07066400884677      0.39016043775714     -0.43181590961358
  N       1.23415287255462      0.51113937820590     -2.67431622473854
  C       0.96667913054234     -0.61403483112920     -3.57321021665340
  C       0.77417696111822     -1.88692410164863     -2.77187894116517
  N      -0.33917781755335     -1.72664900571907     -1.82093614373165
  H       1.15342563105953      1.40745914582890     -3.15634555900240
  H       2.19708092217592      0.46308877631109     -2.32654415501127
  H       1.76886680841965     -0.76735490817132     -4.31585348780032
  H       0.04958136315034     -0.38984239121345     -4.14535147063539
  H       1.68230557389532     -2.09212552961780     -2.18135009325200
  H       0.62070815805039     -2.73939300055592     -3.45578610007918
  H      -0.36313696496626     -2.52808148529016     -1.18677555528737
  H      -1.23000373132718     -1.75223243511548     -2.32247849845617
  F       0.13759662291068      2.42201381145418     -0.44431725778392
  C       1.02060159665439      0.77827908879310      3.47278941381034
  P      -0.22423662095186     -0.42989713607435      3.01075252049898
  O      -0.77856839622474     -0.15027686504138      1.58957701228537
  C       0.51666894744791     -2.06297527645171      3.10213335405225
  C      -1.57090907039593     -0.34881265723742      4.19842734409107
  H       1.86802962158602      0.68165983676998      2.77460410039573
  H       1.36798910415426      0.60560071748397      4.50293884336796
  H       0.59432022292896      1.79029165103856      3.39463434120258
  H       1.33916072151495     -2.09909648246923      2.36917751685562
  H      -0.23918012084003     -2.82181778005581      2.84887512491080
  H       0.90707870153317     -2.26109963153949      4.11197605999983
  H      -2.02418404906568      0.65326133563639      4.16507789351392
  H      -1.20863507405797     -0.54986550917125      5.21784483366383
  H      -2.33459511249138     -1.09476138919803      3.93148930583204
  N      -2.39009549252538      0.91662095602748     -0.76093764949772
  H      -2.88269024650730      0.62731647983761      0.08684764072388
  H      -2.99928866554044      0.69300886563639     -1.54862654216186
  H      -2.33229673199894      1.93859236688084     -0.72111065176148
  Cl      2.31771112590302     -0.62185243196179      0.30058915142715
