11
Coordinates from ORCA job orca
  Ac      0.26882227292921      0.00094712220336     -1.35709973391600
  N      -0.73001541854140      2.08987891177834      0.57900288512147
  O      -1.04359599048904      2.93186883489876      1.35642263703950
  O      -0.52606748515017      0.87925649154244      0.92499397709852
  O      -0.56637639220717      2.32425975822173     -0.66044652173452
  I       3.33046223517713     -0.41843670321297     -1.75709401033477
  F      -1.03087438173149     -1.23184076113412     -2.57779207010226
  N       0.37777894972015     -1.82771587461772      0.61163528872563
  H      -0.41077617318261     -2.47536439324745      0.66609898429206
  H       0.39044897774610     -1.31047641007004      1.49452627229131
  H       1.22869340572927     -2.39307697636232      0.57915229151906
