31
Coordinates from ORCA job orca
  Am     -0.15568437771128      1.08362128572108      0.38792475945509
  Br     -0.56805753625179      1.44929018269955      2.92570071105061
  C       4.07393668154314     -0.68906578743855     -0.32263043740686
  C       2.77983954608170     -0.18095268128562     -0.42009346865771
  N       2.09680267797876      0.17374318688440      0.68176822430949
  C       2.69930734387616      0.02445055577179      1.87321346829765
  C       3.99752338522884     -0.48609704242192      1.94327798005811
  N       4.67003045827416     -0.83563891882410      0.85475775092565
  H       4.63159547652103     -0.97890783800413     -1.22005913549670
  H       2.29775304680364     -0.06103608564792     -1.39931582503783
  H       2.14221327247858      0.31408027127237      2.76899174922122
  H       4.49219897713864     -0.60789039929072      2.91341219490703
  O       0.40177640189973      3.41396724900665      0.01547029387814
  H       0.62065754581952      3.95357552027152     -0.76114913649723
  H       0.49008768778376      4.00390403360595      0.78360117209146
  C      -5.22680442527138     -0.57715769872310      0.94665567854875
  O      -3.85778353406282     -0.14669365578477      0.76492192319687
  P      -3.19666009028055      0.14174606646898     -0.65656216364829
  O      -2.36909019279908      1.60603488880504     -0.28580877256414
  C      -3.18670099692507      2.78307629912208     -0.08161774070631
  O      -1.66602982130246     -0.60063272874516     -0.40392019345739
  C      -1.62383022098416     -2.04662905942329     -0.45718035176827
  H      -5.20759649205583     -1.51903416255265      1.50862865584819
  H      -5.72916193518518     -0.72402864713755     -0.02177236192558
  H      -5.74787976868891      0.19214491395094      1.53009071671713
  H      -2.52097002143477      3.65399427936415     -0.11646275816458
  H      -3.68314001644874      2.72164336337089      0.89713369211118
  H      -3.92529654266204      2.86203037170513     -0.89413934949766
  H      -0.56848314773655     -2.34998920103017     -0.45823519852297
  H      -2.09836982352468     -2.39852671030444     -1.38566425363484
  H      -2.13128355810231     -2.46442185140648      0.42406217636974
