37
Coordinates from ORCA job orca
  Lr      0.04396309037617     -0.50496215706570      0.04057392306503
  N       1.28952221630142      1.60313051351166      0.37070286988232
  C       0.91237206443245      2.63340403631678     -0.62367414101702
  C      -0.53868704415591      2.47685224545773     -1.03403187270842
  N      -0.75610975169755      1.15533697335684     -1.65895801783560
  C      -2.15719642177204      0.89847161460561     -2.06095995805352
  C      -2.97748470207498      0.35150224350541     -0.90967869436030
  N      -2.32709711140561     -0.85804750056180     -0.36329871861155
  H       1.04418512829993      1.93442615801444      1.30971133971952
  H       2.30945086821539      1.50993943016582      0.40670095237848
  H       1.56318771930559      2.51918364366079     -1.50681721882875
  H       1.08587827817442      3.65261572823654     -0.24265127513466
  H      -0.82762482918649      3.29461298278419     -1.71758079062662
  H      -1.19854008908988      2.56650923276753     -0.15126132247031
  H      -0.18972789532593      1.13663555129694     -2.51121121799365
  H      -2.14136472624008      0.16315804182424     -2.88342887855405
  H      -2.63374451282531      1.80888452814681     -2.46455148820651
  H      -4.00602108581148      0.15013282612201     -1.25139838977622
  H      -3.06221705479726      1.09449830270034     -0.09784738289556
  H      -2.43485107089101     -1.63776694046920     -1.02342471253318
  H      -2.82610829597089     -1.18344191589887      0.47111661891168
  N       1.68693352424110     -1.28726182259643     -1.61182915445205
  H       2.06563040296248     -0.68769102904710     -2.35061356515389
  H       1.35795703492358     -2.13195939896086     -2.09342823243580
  H       2.50580286655768     -1.60673678757822     -1.08062494402204
  C      -2.22038467220341     -1.04337529133761      3.77455243740679
  C      -1.63870765051374      0.15198373904277      3.07198329501012
  O      -0.47314034050598     -0.20596297041651      2.27507210461613
  H      -3.09976679703957     -0.73490137405950      4.36022326068998
  H      -1.50044026047009     -1.48167787171407      4.48445511628900
  H      -2.53639192605903     -1.82964931394812      3.07079883969628
  H      -1.33274299960123      0.93803539600176      3.78022957006924
  H      -2.34597788128917      0.60743659590796      2.36001884047718
  H       0.17889939454494     -0.66065144112930      2.83760259406210
  N       0.96323281448271     -2.89976477528183      1.11489700654709
  O       0.00993682945391     -2.79147013999505      0.30537885139752
  O       1.52227488665494     -1.79852905336605      1.33425235545122
