29
Coordinates from ORCA job orca
  No     -0.21492593839526     -0.56714028802770     -0.54210923982836
  O       0.23284121537922      0.67508547548960      1.30213052344037
  H       0.24279738522288      0.46804702869873      2.24277323481251
  N       1.95749706459902      0.62509938615247     -1.06366406544888
  H       2.82888672944786      0.09881575858969     -1.12244943012799
  H       1.89286045585735      1.01795610279840     -0.11578839864896
  H       2.03318025652916      1.40448284531559     -1.71632099967483
  F       1.35543884674816     -3.63386781533594      2.25386734619895
  P       0.58962538839612     -3.59279735582749      0.83801630354237
  F       1.49854288189300     -2.33352325461297      0.28340528206784
  F      -0.58849501049974     -2.61903165437136      1.38081882233427
  C      -3.64866928182161      3.38219604925194      1.46164432054685
  O      -3.00453072504407      2.59012357763293      0.50341227992617
  P      -1.58570183735332      1.77859788736738      1.00428897612085
  O      -0.96506950407823      1.82894657233332     -0.59621908418058
  C      -0.64902530118162      3.07265980627691     -1.17157548639204
  O      -2.19442499524364      0.20600085393075      0.73351753961503
  C      -3.49030643948111     -0.01650853869554      0.19762498381712
  H      -3.85078188969859      4.38463927394849      1.04812670660150
  H      -3.03100915658094      3.50256087638347      2.37436079109848
  H      -4.61323569670288      2.93490828412365      1.76242957068456
  H      -0.46722944014766      2.91352950855121     -2.24545694157164
  H       0.25582193756273      3.51557515599829     -0.71524245413377
  H      -1.49126499940436      3.77509424178611     -1.06079528137647
  H      -3.58828895388713     -1.10404321095505      0.06330208604256
  H      -3.62519406982163      0.49149495580372     -0.76964319534825
  H      -4.27254120625544      0.33473551902045      0.88823118377328
  C      -1.15102041648422     -2.43353615719324     -2.21395965781901
  N      -0.61787729955372     -2.97030088443394     -1.30972571607197
