12
Coordinates from ORCA job orca
  Cm      0.09577864180491      0.02080258824808      0.92729112602402
  S       3.85431644230153     -0.50981841726901     -2.50474056294976
  C       2.69466562880159     -0.33121212582513     -1.40984320670910
  N       1.83534564169464     -0.19899533394125     -0.59777034771703
  C       0.34826534274483      2.96913270725958      2.82504974272451
  N       0.27244134291928      1.97911818271073      2.18863260595363
  Cl     -0.11089123494366     -2.05940940044792      2.42554911059700
  C      -2.88360368047182      0.24888454097582     -0.77455214862713
  O      -1.64790090146102      0.19032679827913     -0.18505016044583
  H      -2.81638898708553      0.27988666963415     -1.88221652767683
  H      -3.45205825897689      1.15100107778260     -0.46528977243748
  H      -3.51317600777567     -0.62884433152743     -0.51745823979936
