17
Coordinates from ORCA job orca
  Fm      0.25463199269289      0.75883783569995      0.46627397328337
  Cl      1.46681323464728     -0.35436567479496     -1.39066063806069
  F       0.41949236093895     -0.01298061090835      2.31678577615193
  C      -2.12731149383248     -1.19584461222123     -0.91357298181988
  C      -2.85560216784320     -2.34849217021628     -0.25798827686172
  C      -3.58512367313445     -1.64871132303377      0.88584587599389
  C      -2.57710312687260     -0.61029546675623      1.35362581783264
  O      -1.72235221114049     -0.37478985194173      0.20385262307408
  H      -2.79036291792862     -0.59987755662927     -1.56413975246305
  H      -1.21819678500697     -1.46666664071230     -1.47021252882035
  H      -2.12992524681985     -3.08272507704338      0.12868751135538
  H      -3.53230224243996     -2.86781520481799     -0.95168785088123
  H      -3.87582392921050     -2.33043316749314      1.69778034998122
  H      -4.49959137876826     -1.16040069643342      0.51275690422202
  H      -1.92696466565698     -0.96128217932989      2.17007305588785
  H      -3.03163499519684      0.34867761529952      1.64557798378325
  Cl     -0.51014275442789      3.11236478133249      0.42760215734128
