26
Coordinates from ORCA job orca
  Lr     -0.13271880000257     -0.50339777887026      0.34138896816679
  N       0.68948440133023     -0.89727508768448      2.55805785727467
  C       1.58601724326487      0.25337383106228      2.81756151311757
  C       2.73082916945898      0.24127023935635      1.82544648882471
  N       2.26286579050823      0.23961533212632      0.41069119331589
  C       2.39483314099166      1.54207436211671     -0.29751317708476
  C       1.10337959378126      2.33215086566024     -0.29117184753742
  N       0.02834186182648      1.53051430503486     -0.92258783030924
  H      -0.10929263105746     -0.85785505605281      3.20159507242895
  H       1.17782482283270     -1.76890473344108      2.79176133767705
  H       1.98403220860769      0.23435762364918      3.84541539241020
  H       0.98509016470478      1.17584837341983      2.73507385295019
  H       3.34177722393361     -0.66310570724268      1.98441604995001
  H       3.39810698733737      1.09831067603278      2.01311715166293
  H       2.86952837416170     -0.41432861440979     -0.08803044805757
  H       2.69207374609371      1.33314601337168     -1.33917797100803
  H       3.20865894681325      2.14354717552699      0.14003637896782
  H       1.24954282606723      3.29312605100842     -0.81072421831817
  H       0.78566932909056      2.57926299214783      0.73627027997716
  H       0.19285532859987      1.48457664671882     -1.93445854022804
  H      -0.86760956832679      2.02162720250840     -0.82246513519546
  F      -1.61034503866610      0.41397165580510      1.26073053908276
  N      -1.16090711885347     -2.39258152248564     -0.79358900773548
  H      -2.18132521912934     -2.36242543815736     -0.66398558890734
  H      -0.89101687002405     -3.32461742984100     -0.45446168704233
  H      -1.03489591334445     -2.45028197736071     -1.81189662438292
