33
Coordinates from ORCA job orca
  Pa     -0.07969237835958     -0.89341174841351     -0.83851817387731
  C       3.88938301894593      0.96601545328733      0.23079686104044
  C       2.70454485325641      0.46326777099605     -0.31099419963690
  N       1.81197642204360     -0.16988163150853      0.47607681108220
  C       2.08317406941771     -0.30554633977576      1.78741177439997
  C       3.27720522872478      0.20790644333024      2.30167765827230
  N       4.15464049592919      0.83127298451216      1.52441655721694
  H       4.62577596288649      1.48209172135462     -0.39711172044943
  H       2.47770555622440      0.57196863190546     -1.38459597399493
  H       1.35665327997827     -0.81934314964336      2.42669511434946
  H       3.51710791433583      0.10579819140940      3.36714582682243
  C      -1.51188814390382      3.34307612632928      0.52773891998912
  P      -2.20932750592687      2.13781593319165     -0.58419260899508
  O      -1.20641309676496      0.83125864365675     -0.56826770995758
  C      -3.80745943786947      1.57936188988822     -0.02962538826520
  C      -2.26578302495968      2.74299115405189     -2.25859839654791
  H      -0.51625553830118      3.66041418817566      0.18037278721166
  H      -1.45304171622018      2.93974133960906      1.55070515111020
  H      -2.17411560067717      4.22708488341095      0.53951440210038
  H      -4.49559029690400      2.44336187025637     -0.02440843858915
  H      -3.74314145848559      1.17948545843108      0.99444517369304
  H      -4.21017451786803      0.81824275690351     -0.71623289549132
  H      -2.93076029474332      3.62459419087832     -2.28714143011269
  H      -2.67401836090760      1.97578562066441     -2.93527897344198
  H      -1.26298797591423      3.05187274052755     -2.59340431004727
  I       0.19218578933802     -0.56651197133426     -3.62468285243167
  N       1.32045336404036     -2.95605913699922     -1.17662255569166
  H       2.24205965382508     -2.80131392185584     -1.60648294445877
  H       0.84573985198652     -3.60710680136402     -1.81755486574809
  H       1.50261025726803     -3.50911457483269     -0.32854924260842
  S      -3.31002164685269     -4.11209578046260      0.76029082243631
  C      -2.27843720120746     -3.08873047082634      0.28366820180896
  N      -1.43310752233478     -2.26149246575385     -0.11149338118804
