39
Coordinates from ORCA job orca
  Bk     -0.35229459957175     -0.23616408883507      0.46406515443910
  N       0.24727533814910      1.88370134960454     -0.74416230473893
  C       1.30833589381047      2.44817562578550      0.11508728159452
  C       2.52520008461715      1.54094325826758      0.11668117000321
  N       2.18955804724480      0.13912538634878      0.45605048081510
  C       2.78030223176929     -0.38067163919667      1.70725660072145
  C       1.88685633387729     -0.15043641687656      2.90887300235701
  N       0.59368866933241     -0.85150407234121      2.73173721401465
  H       0.59745413259602      1.77150437336759     -1.70173206109359
  H      -0.52187946955314      2.55516153182004     -0.83104595133941
  H       0.90052946987237      2.55459221494585      1.13858533020049
  H       1.60429068512658      3.46243632198719     -0.20202373642949
  H       3.27643001624200      1.94269289809009      0.81639963828423
  H       2.99823584995538      1.56458045345918     -0.87957157705241
  H       2.52455976084185     -0.45633164443302     -0.30213762010034
  H       3.77360610289908      0.06323155782490      1.89337457167574
  H       2.94725450104252     -1.46366597585756      1.57829124578860
  H       1.68333400754189      0.92617397139132      3.04399509210646
  H       2.40646506097189     -0.48537765748804      3.82205367551624
  H      -0.00758464527356     -0.65968823571929      3.53949402724936
  H       0.75764291016142     -1.86366297461930      2.77974451099778
  C      -4.13699576317515     -1.45599556061563      1.10833042116148
  P      -3.32933753030932     -0.03953282158569      0.28112860711995
  C      -3.80625122250858     -0.22413053410110     -1.47457256504132
  C      -4.26646748193634      1.41807078173796      0.85785475365728
  H      -5.21723448981217     -1.45519969819919      0.88966434698863
  H      -4.00188597987235     -1.39581273030521      2.19928031088371
  H      -3.70745003623077     -2.40392486038093      0.74852665898381
  H      -4.90237857914566     -0.29073249394317     -1.56731134853636
  H      -3.35939756374992     -1.13949746443338     -1.89247139295366
  H      -3.45805104432487      0.63827923769912     -2.06387414965098
  H      -5.34136305665727      1.27974565530446      0.65821779777520
  H      -3.92950162015329      2.32602813843874      0.33466643149055
  H      -4.12644193570296      1.56337785993478      1.93989202717452
  C      -0.15583681917250     -2.92394342807434     -1.58450259123754
  O      -0.22322399526367     -1.82048234179721     -0.71402559117387
  H      -0.71509466999440     -2.71621864766303     -2.51070705052944
  H      -0.58572536789339     -3.81719663618954     -1.10453840393809
  H       0.89117677424959     -3.14025069335249     -1.85047400718369
