24
Coordinates from ORCA job orca
  Am     -0.38433114733917     -0.13259103802086      1.67311994776515
  C       2.61976327905243     -1.30323425719335      0.87725998766012
  C       1.63343660155335     -1.56366913384749      1.99377434040725
  O       1.55483351273813     -0.68367878451332      2.89697628448418
  O       0.61883462422407     -2.26058560053889      1.70519396484349
  N       1.82318221099214     -0.26445140103695      0.15173661908396
  H       2.78990592710136     -2.18734870328264      0.25019151411717
  H       3.57327535085436     -0.89921724419686      1.24009446243272
  H       1.65743582417425     -0.54836243708922     -0.81543109792827
  H       2.34068825939245      0.61500257048646      0.10313631641282
  C      -1.66764530515373      4.23082431615419      1.48061226756946
  C      -1.72781322989681      2.79630341753450      1.08854161816286
  C      -2.66202104017036      2.33932259712838      0.14879060798294
  C      -2.77274189074452      1.00271155518566     -0.25940576458684
  O      -2.01692172888589      0.07044206846841      0.20616807312600
  C      -3.78813097678459      0.58705708965019     -1.26517371442757
  O      -0.88213378836426      2.01331501599005      1.66248566591383
  H      -2.39499556833357      4.84904543782755      0.94146904217274
  H      -0.64987471801483      4.61419608690929      1.30341697230224
  H      -1.84763313596094      4.31372176797124      2.56515284902425
  H      -3.34238597708161      3.06749160721200     -0.29253613365649
  H      -3.28104182171647      0.09918524877965     -2.11328873843249
  H      -4.39154865950900      1.42646544440964     -1.63003385396762
  H      -4.44803660212677     -0.17354562398773     -0.81665123046193
