23
Coordinates from ORCA job orca
  Pu      0.94736964821611      0.69282916445399      0.07981865074458
  O       2.11123550793861     -1.16034011724868     -0.58900052138185
  S       2.96684234182824     -0.07865661435048     -1.37628416600123
  O       3.19137067235596      0.92814870229309     -0.16677851737312
  O       1.76094979248956      0.68126998452459     -2.06768479256363
  C      -3.75588492943419     -0.12372477847067     -0.76542847080574
  P      -2.51690492876412     -0.12803943972865      0.53551601482391
  O      -1.11838492632033     -0.00996525639232     -0.14624370964823
  C      -2.61239380985008     -1.66806351010386      1.44718683727840
  C      -2.85283578504558      1.23160377248280      1.65039031195160
  H      -3.54784812573534     -0.94567433037344     -1.46629750862685
  H      -3.69243291417199      0.83207540208269     -1.30751984313458
  H      -4.76572458803467     -0.24047662762454     -0.34453993409020
  H      -3.61759549308105     -1.80265701880295      1.87415230159280
  H      -1.86612629746386     -1.62109570320402      2.25770390239491
  H      -2.37719155868491     -2.50409858605491      0.77172532421635
  H      -3.88460142252591      1.15099073106003      2.02596987488265
  H      -2.71113936708528      2.18777394851542      1.12247893271445
  H      -2.14200218693306      1.17593765499493      2.48962942128605
  C       0.39189783089274      0.18080315303129      2.39249043380795
  N      -0.16239888369658     -0.18678049820284      3.35220148519585
  C      -0.65289531812124      3.69896008542616      0.39299713216134
  N       0.05769474122700      2.75477988169235      0.34071684057458
