29
Coordinates from ORCA job orca
  Th      0.08210136727725     -0.21248875242553     -0.57774081332790
  N       1.58575465897688     -2.30640595982682     -1.14412852079538
  C       1.63159458125519     -3.26581249883477     -0.00428601912101
  C       1.88647252608999     -2.52799027877695      1.29112961464081
  N       0.80300979601588     -1.54980095597133      1.54019376648174
  H       1.29486117781644     -2.81647344914361     -1.98646607358754
  H       2.54951760800918     -2.02050155797479     -1.35989874202874
  H       2.40504854965119     -4.03383043486042     -0.16558211135627
  H       0.66371395825425     -3.79394035307659      0.03548187971320
  H       2.84358563881696     -1.98088746994877      1.24280657030364
  H       1.98270839405849     -3.24869769288481      2.11931144016514
  H       1.08711335117518     -0.89983116521610      2.28262377570341
  H      -0.01268344444759     -2.03916561477510      1.92644061428961
  N       1.09515467443140      2.33650490866200      0.22118415856641
  O       1.47766547986292      3.38133191531476      0.56141155374410
  O       0.97348592021808      1.31168885585123      1.00470079717941
  O       0.73792987697212      2.04387201959003     -0.98685494910101
  C      -3.84362848477096      0.71962874328071      0.13779130703878
  C      -3.28498329299357     -0.67034302425961     -0.01509833742541
  O      -1.86573802106368     -0.63038026312401     -0.27006607105587
  H      -4.92587651550195      0.66093743180124      0.32893469451312
  H      -3.70387560508508      1.31647098886237     -0.77753819062238
  H      -3.38794630233459      1.24830751413218      0.98996505651076
  H      -3.74513159060769     -1.21206601882379     -0.85582250756331
  H      -3.42902661014667     -1.27241790333950      0.89539696413725
  N      -0.20983109900993      0.35429690356989     -3.13621570204525
  H      -1.13492502138989      0.12523578160747     -3.51826533483674
  H       0.45404780617476     -0.00974888491620     -3.82904375714398
  H      -0.13091937770444      1.37640721550688     -3.22126506297671
