19
Coordinates from ORCA job orca
  No      0.36395009755577      0.37754922063791      0.11052497331187
  N       2.02178623206545     -0.95105992893180      1.95395339775365
  O       2.71632989041532     -1.46560540562772      2.77806569020280
  O       1.14388144457079     -0.07854307497994      2.26939058073117
  O       2.11074551191615     -1.22712067257158      0.72203878228847
  C      -1.14619833399497      4.69182156600809     -0.19837646036185
  C      -1.23167957443426      3.19300717847201     -0.13914243371527
  C      -2.50301740104245      2.58667968677954     -0.07583527505378
  C      -2.76474523676868      1.20395546610463     -0.02135757592929
  O      -1.88179872062364      0.29137988240415     -0.00755150901234
  C      -4.19104087851070      0.73347129265448      0.01864130384905
  O      -0.12424056371536      2.57400693434548     -0.15125530338299
  H      -2.12816625555136      5.18146770315110     -0.21610974899917
  H      -0.57180405496338      4.98378639624131     -1.09165772878296
  H      -0.57570443985309      5.04881024562302      0.67410964432489
  H      -3.36742207574102      3.25198671475568     -0.07793899144799
  H      -4.91875826420596      1.55478087946695      0.01864735704777
  H      -4.33629586338975      0.11268237555652      0.91700184333653
  H      -4.37582151372881      0.08004353991011     -0.84914854616057
