20
Coordinates from ORCA job orca
  Th     -0.32777996284599      0.92301921585066      0.77390866393389
  F      -1.25619093448910     -1.37755063963433      4.03580823231309
  P       0.27365105626211     -1.03540753374791      3.96455533574116
  F       0.05733044750212      0.50616346018223      3.30874088514175
  F       0.58800040102482     -1.63434616696075      2.51297942231124
  C       2.86052194431294      0.15399050027910     -0.33396734960088
  O       1.61409271996021      0.56041638897624      0.17839833303758
  H       3.15449108312751     -0.81097159472566      0.10765136452249
  H       3.62830964981303      0.90564522849438     -0.09377928079425
  H       2.80182682347449      0.03964709124502     -1.42714755045498
  O      -1.55844984582332      0.43250914340958     -1.04704466104371
  S      -2.71414769688745     -0.00206208425942      0.00822039128466
  O      -1.77284017826071     -0.88717788260007      0.94548412511202
  O      -2.73139349542871      1.30836546414362      0.86444585798848
  C      -1.14111885599706      5.84285325786277     -0.32281558828363
  C      -0.73358727593512      4.52229713164521      0.08322609353781
  N      -0.41236710176042      3.45882127935131      0.40422587998116
  H      -1.97698713368755      5.76093385819914     -1.03486859331872
  H      -0.29818872394605      6.36145668983078     -0.80427995965495
  H      -1.46947292041579      6.41519719245795      0.55825839824572
