14
Coordinates from ORCA job orca
  Th      0.53863530988428      0.42210047564478      0.80487089252545
  C       0.35365402721873     -0.35140059069949      4.13440967274234
  N       0.44190525527355     -0.04786224983522      2.98142190599887
  N       1.98278715592973     -1.48832641273216     -0.73347430993837
  O       0.73651895878329     -1.52167910796326     -0.55776312147131
  O       2.48689694595069     -0.45607812914211     -0.21914203171059
  C      -2.39112810068318     -1.37723967910699     -0.04580977845695
  O      -1.68826165032816     -0.12451328912287      0.19225064087502
  H      -2.77319399509202     -1.38097995388579     -1.07499424804599
  H      -3.20510364430759     -1.47446947692962      0.68448660067400
  H      -1.66207706529552     -2.18642424807637      0.07892850760021
  H      -2.27323889850091      0.63139239898412      0.00955910561886
  C      -0.55626312554194      3.48655891226989     -0.31100252121969
  N      -0.16873117329094      2.41962135059508      0.06135868480814
