13
Coordinates from ORCA job orca
  Cf     -0.01353432843771      0.35281476165938     -0.18450158824097
  O       3.01021261052463     -1.48783406900889      0.69018763701707
  S       2.75385296314104     -0.02763915437761      0.50026496710625
  O       1.44486486109692      0.32510378483248      1.40147785017744
  O       2.03243981869916      0.13322612852636     -0.93480805565723
  I      -0.76387598295495      3.09479763878825     -1.00283663046312
  S      -2.39918489100980     -1.07790611152757     -0.04772655139782
  C      -3.74587861551122     -0.09386429342180      0.12345688313083
  N      -4.71885664427786      0.53926167185660      0.25365034914961
  N       0.41257002619657     -2.13398426249616     -0.21977143634204
  H       0.44671016525712     -2.56481531254283     -1.14336979304902
  H      -0.20791215472932     -2.70104758778642      0.35912791208227
  H       1.37639217200544     -2.16591319450175      0.17044845648674
