21
Coordinates from ORCA job orca
  Lr      0.25067700922792      0.15636214808502     -0.82691151654866
  C      -1.94391537825898      6.46127377973471      0.30774963712301
  C      -0.89099151286399      6.25963179984580     -0.58898010235113
  C      -0.42740507774514      4.97454298494585     -0.82979683843611
  C      -1.02303242817164      3.89055216572551     -0.16181292147467
  C      -2.07682291493985      4.09503119991306      0.74597554210410
  C      -2.53620223701056      5.38448369690012      0.97378965914587
  C      -0.54219506507925      2.55069589090857     -0.42205920889318
  O       0.38298935541920      2.30639539541547     -1.27607456609707
  O      -1.03443819857272      1.52001750214922      0.19501480977913
  H      -2.30830937744020      7.47557584351054      0.49165639105912
  H      -0.43466739141688      7.11115983453189     -1.09861825615820
  H       0.39384003048802      4.79010154651323     -1.52592105882959
  H      -2.52131684043804      3.23907861302386      1.25889238330539
  H      -3.35713177634814      5.55850239594597      1.67300374656579
  N       1.43768957776383     -1.10236993142420      1.22235746033372
  O       1.97856442609576     -1.59320688203056      2.13662280237624
  O       1.97660488925077     -0.16813683363651      0.49836628205949
  O       0.26332884414208     -1.41791233702559      0.82041795870873
  C      -1.81509498026825     -1.34790840265001     -1.54568474219219
  O      -2.72727095383391     -1.97277041038206     -1.70878746157980
