21
Coordinates from ORCA job orca
  Ac     -0.29184360015087     -0.10829913569063      0.36476804936743
  C       3.42372363607526     -2.76072015163963      1.85927727869885
  C       2.37117393752482     -2.35689106317322      0.86095715107547
  C       2.15612401150496     -3.15609786634802     -0.27548026442829
  C       1.20255858939568     -2.85701849736489     -1.27021313530036
  O       0.44501757926213     -1.85145894634841     -1.25338523447496
  C       1.05091992685485     -3.78788171583391     -2.44485113205972
  O       1.73754450697870     -1.29660376463386      1.12450128649924
  H       3.93413377456510     -3.69698702393965      1.59562178659975
  H       2.94785078149420     -2.86433523225674      2.84733482801108
  H       4.16263308527448     -1.94817797557733      1.94659945808688
  H       2.76206663117285     -4.05561653373219     -0.39440372564362
  H       1.74898843221646     -4.63562844492046     -2.41728267487183
  H       1.19616180021205     -3.21694151296738     -3.37560897148499
  H       0.01560045232429     -4.16471718862150     -2.46053226040156
  N      -0.96298270704852      1.30132825222195     -2.27291355341121
  O      -1.23235343532504      1.79435613811988     -3.33532593884568
  O      -1.85784336752926      0.82390007074013     -1.51262045317875
  O       0.22311881131490      1.22652466374610     -1.85032929206631
  Cl      0.27224064068606      2.14865253797370      1.88399861779526
  Br     -2.26263348680327     -1.86648660975365      1.70868818003339
