28
Coordinates from ORCA job orca
  Pu     -0.47626971930771     -0.28842630262892      0.26243662266042
  Br     -0.83801467603135      0.03612600623327      2.92239527469345
  C       4.42825199341068     -0.54702400763026     -0.13198334132721
  P       3.00426303074392      0.53151704412004      0.07347984641101
  O       1.74971821325672     -0.35952527387867      0.23526071905117
  C       2.89366951772946      1.59635475618635     -1.36680498503674
  C       3.24869767726479      1.54603644120589      1.53408004998108
  H       5.35731170622696      0.03389343369580     -0.23040686608398
  H       4.27701987600200     -1.15825336282185     -1.03449445510361
  H       4.49682623122833     -1.21442230456541      0.74001927393696
  H       3.86036527146442      2.08641367216269     -1.55856700524935
  H       2.11741012050614      2.35197639481020     -1.17638244792225
  H       2.58796260542555      0.99340331025663     -2.23768987707820
  H       4.17454398910838      2.13549410963059      1.45482762595533
  H       3.29238639438365      0.89303065802584      2.41878410919688
  H       2.37712780412350      2.21312980230796      1.62190780195278
  C       0.15341286611213     -0.00483545529063     -2.98521135241777
  N      -0.50421582064194     -0.21425461769892     -2.02485125735848
  N      -0.73323578163775      2.61898557185102      0.09878409968642
  O      -1.65207241037215      1.81100240270950     -0.12461458616916
  O       0.32875100743911      2.04720393407410      0.43570466982400
  N      -0.61969335842471     -2.46718281421189      0.29600890567276
  N      -0.65291035601984     -3.64669962867382      0.07002907146279
  N      -0.68659701202906     -4.76788198487150     -0.12925614599204
  N      -2.90281028296498     -0.62071997292561     -0.19574446718508
  H      -3.00334366379454     -1.10314019836957     -1.08943166626270
  H      -3.35582447944120      0.29119057864722     -0.27761303933499
  H      -3.38943074376060     -1.16519219235005      0.51653342203651
