23
Coordinates from ORCA job orca
  Np     -0.16190363116498     -0.11769305067881      0.05135110165980
  N      -0.17733965493363     -0.20985111637635      2.49469215632797
  C       0.87432098765815     -1.16533931479500      2.97184123720648
  C       2.16399396277056     -0.93422193261030      2.21618638627301
  N       1.94498843540189     -1.14009923189542      0.74842683793198
  H      -0.01779863010655      0.70740832060877      2.93862206621029
  H      -1.08956626674510     -0.50801440078708      2.86992158468653
  H       0.49667447258521     -2.18999359905787      2.81970259533439
  H       1.03812954842070     -1.04272771253560      4.05524299694988
  H       2.95076975375362     -1.61373589257819      2.58438077256420
  H       2.54289614484102      0.09134965034272      2.36897621205247
  H       1.89149330763625     -2.15318561652810      0.56219772828806
  H       2.78772045729572     -0.84154120468879      0.23606265957897
  F       0.29491477557581     -0.35334060570287     -2.07074098527854
  P       0.11185570457356     -0.88771313143617     -4.00935355116297
  F      -0.52799177243987      0.49531862287716     -4.30048293420088
  F      -1.15556360060000     -1.70331877041692     -3.62447235987761
  Cl     -1.25039576854302     -2.24593387630470      0.12951556033262
  O      -2.32979401616729      0.81830943107220     -0.09691327243229
  H      -2.63763213365295      1.72810396603833     -0.28201668843069
  H      -3.14148331979981      0.27156143482925     -0.06906555030286
  C       0.86235017684905      2.50475642129399      0.08283504820958
  O       1.27706106679162      3.54040160932978      0.07859039807950
