33
Coordinates from ORCA job orca
  U      -0.64855749899140     -0.43882695334931      0.35067764152191
  C       3.81895518236784      1.25495367191575     -0.57457374411723
  P       2.93267681664633     -0.18700464745074      0.00824490060148
  O       1.41159425438415     -0.01379747171967     -0.34241126744188
  C       3.14622351689498     -0.33705749806024      1.78095960022648
  C       3.54174960498530     -1.67098403264065     -0.78632228914683
  H       3.69112315386474      1.35069416204376     -1.66326178569879
  H       4.89055635790925      1.17429450088245     -0.33626074806052
  H       3.39433670379707      2.14277809669279     -0.07922516034122
  H       4.21105847998407     -0.48048686585824      2.02249868876481
  H       2.56665452750680     -1.20382742403130      2.13733071782776
  H       2.78158810468921      0.57767675235839      2.27341669938430
  H       4.60525414455901     -1.82994766390805     -0.55075414102257
  H       3.41617300722531     -1.58315268452235     -1.87602117139884
  H       2.94935822326735     -2.52398971847484     -0.41851934099839
  S       0.81396832288885      3.34834030600647      1.36520771758641
  C       0.21333851170897      1.95429469167482      1.86811105057527
  N      -0.25081750053157      0.88555324465763      2.15727911259719
  C      -3.85887398862164     -2.92556158479876      0.43972157095906
  C      -3.90542590158150     -1.43145293415745      0.23081705913413
  O      -2.60075526846116     -0.87774013547190      0.17899544419845
  H      -4.88121595265361     -3.33003847924453      0.48444210357037
  H      -3.34957564485170     -3.17830605697746      1.38241574322699
  H      -3.32942132002393     -3.42502687478796     -0.38639676332928
  H      -4.45195549851331     -0.93009594355730      1.04724047463835
  H      -4.41592094833005     -1.17732283863261     -0.71410545371145
  Cl      0.20719468697314     -2.72051786254796      1.04943539971561
  C      -2.25868118087595      2.20749896593650     -1.37014804640225
  O      -1.07370738064609      1.65358072226323     -0.78669265670077
  H      -2.01142071474868      2.72345374795902     -2.30920420205120
  H      -2.73917924237266      2.90509508685105     -0.66839563724739
  H      -2.94030114748293      1.37361899196638     -1.57886006609721
  H      -0.46889441096621      2.37080472898310     -0.49744145076277
