37
Coordinates from ORCA job orca
  U       0.15053027357654     -0.35214998194282      0.13789333402749
  N       0.33619995713711      0.08078870933686     -2.27750119913168
  C      -1.04282587325619      0.41204126977306     -2.78356974354424
  C      -1.61368546529616      1.54606215229053     -1.96679059253875
  N      -1.68796754913700      1.15613707099436     -0.51497002833627
  C      -1.74465062243544      2.33686808766152      0.41508791868258
  C      -0.36705358090123      2.92058097752785      0.62608458050925
  N       0.56117020689386      1.86686826648596      1.17782725067973
  H       0.95734371942942      0.87534932520479     -2.50786585907958
  H       0.72429464261700     -0.67826082573325     -2.85952274662004
  H      -1.66688863579347     -0.49915609620038     -2.72163848283395
  H      -1.00391056805818      0.68248361755951     -3.85371558896990
  H      -2.61814447547469      1.82225676099709     -2.33283469150460
  H      -0.99154891559272      2.45233554947918     -2.05881017282847
  H      -2.58720049935632      0.65991584949882     -0.40861522124766
  H      -2.19434019833726      2.00692597066099      1.36862210361713
  H      -2.43187226885080      3.10202134111302      0.00992116546050
  H      -0.41806701379437      3.78210040477878      1.31411554848479
  H       0.07137817917441      3.30753971449057     -0.30854195719737
  H       0.41626598219694      1.82999935172152      2.20111446117140
  H       1.52513216270900      2.23299978632506      1.11156084943762
  N       2.48490899683040     -0.99099217305227      0.63367239700274
  C       2.67182299773865     -2.49006870321322      0.59604248804712
  C       1.97162693781280     -3.06449265791430     -0.61095205967927
  N       0.50211700267562     -2.74096143209286     -0.54880709263898
  H       3.14404297361562     -0.58015408668246     -0.04995305271604
  H       2.86056725799125     -0.65044133804414      1.53475309547418
  H       2.27971108318630     -2.91109646346624      1.53850269122471
  H       3.74837029259853     -2.73421940323299      0.57694163235295
  H       2.12268852558364     -4.15716979704511     -0.65907996807199
  H       2.38284699219593     -2.65813543988998     -1.55181037796392
  H       0.07544316008357     -3.39239248414078      0.12953755597955
  H       0.06716766529785     -3.04378289427998     -1.43466377068726
  N      -1.15275936193058     -1.31398789700217      2.06361003474040
  H      -1.64016705880518     -0.62480741376786      2.66198673050071
  H      -0.59976099394991     -1.85383882888333      2.75205069084877
  H      -1.91288592837490     -1.97026628931532      1.81131807734844
