19
Coordinates from ORCA job orca
  U       0.10154229010525     -0.36992946535560      0.55000088582983
  C       3.61287085908770     -1.11126960057559      0.48076771181340
  N       2.45974128740234     -0.87035940119524      0.50819988442226
  O       0.12904618125949      3.95185710874875     -1.21600424953599
  S      -0.60035975086020      2.67010103304259     -1.22482355864140
  O       0.30156123245418      1.54358763431711     -0.53723457381301
  O      -1.73464032608822      2.84542572968271     -0.04937928372924
  C       0.22963044575000      0.50119676158764      4.02453790054905
  N       0.31031235398647      0.28460640452083      2.86909353114368
  C      -2.94366984325576      0.08485682057633      1.72097580388325
  O      -1.92658050367212      0.40450110833818      0.83849257617064
  H      -3.90655846822522      0.54423617344188      1.40946610804771
  H      -2.71872714613144      0.43855446761706      2.74770435710941
  H      -3.09684901885045     -1.01121640709511      1.77532059027738
  H      -1.90360607342763      1.92353498520515      0.32748718677021
  O      -0.43821977952874     -1.54607350751769     -1.33837732511143
  S      -1.13036619788835     -2.81946114221511     -0.65574590713575
  O      -0.34255108166518     -4.03115858680728     -0.96810926166960
  O      -0.76697646045192     -2.36259011631667      0.88112762361944
