28
Coordinates from ORCA job orca
  Pa     -0.07955475525589      0.32312506977153     -0.32197113095429
  C       2.87311964675723     -1.16504692927085      0.57424635653290
  C       2.47581895162417     -1.65519752240657     -0.79128460509023
  O       2.91506435997387     -2.40185335125396     -1.55034484612716
  O       1.18567070298078     -0.88475864302359     -1.15208746134783
  N       1.74934961526816     -0.48672681209026      1.26322904378289
  H       3.72059286666354     -0.47026594254720      0.42580495617176
  H       3.27517815384396     -2.02066643354931      1.14469828371057
  H       2.13096005286832      0.24479096380622      1.87877991363736
  H       1.32521112822596     -1.14619142944849      1.93237056065600
  N      -1.05150981201617      1.14764332346705      1.27416958027719
  N      -1.64787579438693      1.72117824828179      2.20902279305047
  N      -2.17548878663650      2.23300526018204      3.05059970611433
  C      -0.84154150665558      1.44989567484894     -2.92311629035215
  C       0.01883335139137      2.63938141584793     -2.57966587667697
  O       0.55223837552852      2.39097127871656     -1.21990687842747
  H      -1.29501127270161      1.58662579137996     -3.92212995303703
  H      -1.73353417239228      1.34686533595430     -2.26088251411383
  H      -0.26762847052555      0.50281731019837     -3.03727394338802
  H      -0.56005217701970      3.57456068390085     -2.54358000983946
  H       0.87315768991576      2.75099513766801     -3.26422404593243
  H       1.03261830175045      3.17164877544225     -0.88213259937383
  C      -3.12929225854120     -1.41309658056960     -0.34445351395715
  O      -1.69686112168471     -1.28620196335760     -0.71461573598110
  H      -3.24899127488965     -2.33258436705462      0.24453991569531
  H      -3.72090612616381     -1.44721682209005     -1.26944303637575
  H      -3.38479163974332     -0.53037899929442      0.25282520400652
  H      -1.45607402817920     -2.05981847350926     -1.26237387266054
