25
Coordinates from ORCA job orca
  Fm     -0.03948065432536      1.36744937839333      1.27244458715765
  C       6.45849484793649     -0.41713531772430     -0.22623792904368
  C       5.40818244022267     -1.20398524813230     -0.70224704758111
  C       4.09500721969976     -0.86851138331418     -0.39082135757686
  C       3.83596597322395      0.25619752204224      0.40040690896044
  C       4.88906666895655      1.04442777485646      0.87772594627735
  C       6.20032606597144      0.70589714378954      0.56151820660927
  C       2.44451730424501      0.61791126498794      0.73201141221286
  O       1.47023157053809     -0.06633459489907      0.29128416578557
  O       2.20030905675939      1.63183628631962      1.46228266506170
  H       7.49049245166360     -0.68217582529814     -0.47206437503399
  H       5.61781542591588     -2.08183883146756     -1.31859501586512
  H       3.25354137746101     -1.46522769368502     -0.75029344331708
  H       4.65684191305635      1.91693846312590      1.49273432929730
  H       7.02720991542297      1.31817407162434      0.92987186445978
  Br     -1.13718142643216      0.38830208596766      3.49736457553648
  N      -0.70976342193042      3.40514427982096      0.27928938097639
  O      -1.03607210069501      4.50624723968738     -0.02078748140995
  O      -0.64975721556434      2.47702269164404     -0.60894515881061
  C      -1.32382853397896     -0.62344466024433     -1.13624777729997
  O      -1.44679556730211     -0.18348162980928      0.21188792720745
  H      -2.25928748790033     -1.09805819128553     -1.46883791504176
  H      -0.47666688867850     -1.31743778021781     -1.24794083844989
  H      -1.14246610158479      0.27232731717948     -1.74423697480370
  H      -1.71560283268138     -0.89854436336138      0.80543334469141
