25
Coordinates from ORCA job orca
  Md     -0.14084593159122      0.29537260634859      1.58932477898122
  C       3.10564741388407     -0.27370858308897      1.73631427231881
  C       1.88135910212234     -0.98236716597313      1.20851218073040
  O       1.37018762732578     -0.52177179292628      0.14257609872603
  O       1.13791679275536     -1.55015090116370      2.05684195669117
  N       2.38515522587277      0.91563910640912      2.27623990221895
  H       3.81878875588246     -0.00210540128404      0.94749921825113
  H       3.60518869806366     -0.83898737535583      2.53293623855559
  H       2.65078461925711      1.76698989889941      1.77839265161753
  H       2.61166402162644      1.06909518812338      3.25963110263575
  C      -3.36076847695435      0.33166658669706     -1.02863458154186
  P      -3.51838422039660     -0.26538470268407      0.65479482663199
  O      -2.10778325955155     -0.48413443316522      1.28592200480465
  C      -4.42910607199368      0.94208554810907      1.61668241640853
  C      -4.39954706635550     -1.82513615761891      0.65442719717242
  H      -2.80209983870440     -0.40382199518793     -1.62778646321852
  H      -2.81138351321755      1.28699411945501     -1.01610620989118
  H      -4.35369941095648      0.48618336836177     -1.47812665331473
  H      -5.42445445705973      1.11862606243183      1.18157508623659
  H      -3.85867848936473      1.88491467437335      1.62341899118944
  H      -4.54282435765219      0.57605283948064      2.64833090045533
  H      -5.40689309983050     -1.70073888220768      0.22868924783030
  H      -4.48170882608984     -2.19561322204126      1.68729125273211
  H      -3.83729325578207     -2.55823023597570      0.05650446345802
  Br     -0.82252198128949      2.74633084998348      0.93754912032025
