20
Coordinates from ORCA job orca
  Bk      0.65134485537797      0.47318688936988     -0.02999371061224
  C       3.75059075639766      1.87726685083720      0.73617262724480
  N       2.72191049393295      1.37044902402618      0.45968068210017
  I      -0.23696491094902      2.64980989751875     -1.86106039185019
  Cl     -0.39563098489904      0.58822715427244      2.29939042288292
  I       1.91903175905585     -2.27584844948493     -0.51953958338379
  C      -3.79539572177548     -1.61000645392382     -0.10771918356947
  P      -2.02832379623464     -1.98004133205102     -0.19679519368885
  O      -1.27017478748728     -0.72736606134576     -0.62076731434207
  C      -1.54033429462655     -2.61679829968871      1.41279968664783
  C      -1.81368971250442     -3.31301397364944     -1.39091017625112
  H      -4.12298347965789     -1.22752880971578     -1.08607025034016
  H      -3.93836939618400     -0.81666753372761      0.64171679219645
  H      -4.38758842048620     -2.49618603521236      0.16650492628555
  H      -2.20233883696892     -3.43661220129786      1.73185084413776
  H      -1.56134171132546     -1.77702125782774      2.12729637491166
  H      -0.49745020011470     -2.96616997596183      1.33299150563886
  H      -2.15816309029939     -2.97163024471328     -2.37839471785314
  H      -2.36247996633381     -4.21815535758824     -1.08877272960497
  H      -0.73034855491756     -3.51749382983604     -1.44128061055000
