21
Coordinates from ORCA job orca
  No      0.00962048565426      0.28169789154128     -0.43366794400126
  C       2.53897913101578      0.58744169729812      1.56647995757178
  C       1.39123696785123     -0.06759142728319      2.36572485133978
  O       1.56736249002796     -0.28507763247038      3.54497073423936
  O       0.31912712586289     -0.28295842401294      1.68128275763112
  N       2.53466551320341      0.22300902194654      0.13912682772705
  H       3.48996294144168      0.35003490778295      2.07098298491674
  H       2.38989358417310      1.67809401919173      1.64149983620253
  H       2.91093734809464     -0.72157120107068      0.03992115460352
  H       3.17763836184953      0.82601179446778     -0.37551447818669
  F      -0.42356389277433      2.31430940701190     -0.56684974076489
  C      -4.61263357121714     -1.15126551075626      0.19117789497554
  C      -3.25337224491391     -1.24012649685463     -0.10184469363428
  N      -2.52065726219549     -0.14424691700421     -0.30412801945364
  C      -3.13399128443987      1.04065906924889     -0.20199239782204
  C      -4.49691001637440      1.10842387807756      0.09348456531515
  N      -5.23360756391576      0.02014259282825      0.28539521322938
  H      -5.20726740487454     -2.05670662472051      0.35579786410720
  H      -2.75122101347971     -2.21085383190067     -0.16699290003249
  H      -2.50015463998723      1.92656204849020     -0.34798909650627
  H      -4.99544505500206      2.08021173818827      0.17693462854240
