25
Coordinates from ORCA job orca
  No     -0.81657868963607      0.19196714174986     -0.32322574110642
  C       2.16041446215726     -2.96713381108415      1.72549024589056
  C       1.68635913266014     -2.14603465145771      0.52949029417197
  C       2.68468437899547     -1.59168867252531     -0.32086996763373
  C       2.37662909203799     -0.72575151452726     -1.39335676714669
  O       1.24894962622971     -0.33618499770346     -1.73868447632651
  C       3.54482909194493     -0.19041154939135     -2.22798707416134
  O       0.46444067224492     -2.00126146762325      0.39798359711651
  H       3.20233318702578     -3.32037125734752      1.63082823170809
  H       1.48170625161511     -3.82541832145280      1.85833383477702
  H       2.07686804257756     -2.33930127652761      2.63205141539062
  H       3.73705169822306     -1.80208150920596     -0.10154794356736
  H       4.53033380359062     -0.58664863038550     -1.92919662948037
  H       3.54615216923705      0.90891352591070     -2.14192784892225
  H       3.35835687171168     -0.42558787614608     -3.29016320295923
  S       1.47502747164743     -0.26186801213829      4.79132347975482
  C       0.71933835762025      0.05336715809252      3.34397418091277
  N       0.18534285804669      0.26914036873640      2.31906610515196
  O      -2.22590467897483      2.34424077656325      0.16069788265679
  S      -1.44375037481611      2.82453117591645     -1.09374872722110
  O      -1.70349770472763      1.68911497637029     -2.13905339586117
  O       0.04956253051651      2.63112425879839     -0.71172923402435
  N      -2.98877518945274     -2.02079528551044     -0.71260344470782
  O      -2.93178065018298     -1.28960091280652      0.29521470567565
  O      -2.12499241029191     -1.81415963630446     -1.58155952008841
