17
Coordinates from ORCA job orca
  Cm     -0.36849442323501      0.81507046787449      0.83654278983391
  F       0.37694508280340      0.92972982177756      2.77919601187622
  F      -0.11123666375383      2.52960349206051     -0.26403547507786
  C       3.72498633903741     -0.58566495627931     -1.07237167070201
  C       2.37493464564033     -0.33757853306857     -0.83167081019209
  N       1.97284444767953      0.10200623713213      0.36289608414987
  C       2.89239912811874      0.28377951520662      1.31627282076472
  C       4.23624450229824      0.02295258603295      1.05204495361507
  N       4.64985044829129     -0.40483181166478     -0.13554903644782
  H       4.05649385045531     -0.93986908721790     -2.05418956947588
  H       1.60758214302791     -0.50159941328209     -1.59465121615983
  H       2.52438247190175      0.63495799119634      2.28631650960638
  H       4.99095821584973      0.17002518162834      1.83197013981780
  N      -1.87637333190010     -1.24133077975850     -0.43866375160780
  O      -0.60974841064497     -1.15653217470579     -0.54992307474711
  O      -2.40472477586275     -0.37789634096848      0.33237393178652
  O      -2.51454366970702     -2.06332219596352     -1.01265863704009
