23
Coordinates from ORCA job orca
  Fm     -0.83988332616973      0.81723915297158      0.16763408642875
  C       1.31500738545298     -1.67021521876566      3.37162375135154
  C       1.23163287273806     -0.65794145369555      2.27065565750019
  C       2.41197732242107     -0.06705305635476      1.77286161438154
  C       2.43870342205229      0.90476888985659      0.76647607446120
  O       1.40015944405202      1.34878808522729      0.16838058231081
  C       3.74109749754080      1.50616465656219      0.33441319384282
  O       0.07080818030717     -0.38574654009244      1.84211690499628
  H       2.34437149909967     -1.87089331856048      3.69444950067172
  H       0.84431223426942     -2.60602306878412      3.03048560313910
  H       0.72099052156786     -1.31439665255472      4.22846088806918
  H       3.36197337198941     -0.37483147217049      2.21072152986582
  H       3.70908313420923      2.59360344244632      0.51511735687337
  H       3.85457443806614      1.37058751528524     -0.75298338019445
  H       4.60787503596128      1.07767432475551      0.85302547892543
  O      -1.68472691922163      0.89871785893023     -1.91918624100940
  S      -3.05192705145406      0.85709125501952     -1.11023056608013
  O      -2.76731147084474      2.00457587989985     -0.05938434194986
  O      -2.72698799404571     -0.39419422723780     -0.19824743592590
  F      -0.29305693195877      5.20096396664144      0.71621434823330
  P       0.61089038283649      3.90436174222958      0.57535829501902
  F      -0.31071781874483      2.94606322078661      1.54142531937144
  F      -0.05644523012444      3.36179501760408     -0.78028822028180
