17
Coordinates from ORCA job orca
  Lr      0.37540685325442      0.39516659235457      1.02162434463003
  Br     -0.54834070571968      0.08439630145290      3.66958111099877
  N       1.55397112415775      3.05180923016954      1.36279941551902
  O       0.48479140718293      2.84158710095872      0.75094069174195
  O       2.06276056771087      2.03293935417653      1.85978000801042
  O       1.38802054483651     -1.52793125002513      0.66047793301677
  S       1.91685817322240     -1.26507478119304     -0.83756396367247
  O       1.44425997121712      0.26116144809332     -0.94400869951692
  O       3.40795557244322     -1.30459870320779     -0.81775462498408
  C      -2.28114411256320      2.03058449793134     -1.39123187490960
  C      -1.96614472551013      0.55225227349451     -1.16612200745777
  O      -1.52776646490102      0.31042325353416      0.10134314467254
  H      -2.64626191729270      2.22974868981967     -2.41755982947774
  H      -1.37584227072864      2.63275729715566     -1.20828218758572
  H      -3.04868445059524      2.36518183403904     -0.67139015407326
  H      -1.21888095585824      0.24390935023682     -1.93666417887324
  H      -2.89485861085633     -0.03341248899088     -1.40006912803870
