16
Coordinates from ORCA job orca
  Pa     -0.10772286898439      0.03132834892495      0.24465299751633
  O       0.14360656766984      0.43063632650443      2.13716252596939
  H       0.35104665496652      0.66111229076151      3.06431195833291
  N       2.33704523157977     -1.13681027575464     -0.32697203955117
  O       1.18470806054406     -1.72013834986049     -0.28471907433096
  O       2.21044116737422      0.07395690985729     -0.09316263213054
  I      -0.44557851980545      2.43678656465145     -1.10244991333956
  C      -1.86200210791774     -1.41979634365192     -1.57590890496952
  C      -2.90483319948396     -1.36091227512752     -0.48773350486569
  O      -2.26071934321258     -0.71126301511378      0.66765461435862
  H      -2.29326719104170     -1.85452440004120     -2.49484934771368
  H      -1.00861839389081     -2.09071459999664     -1.34024672847814
  H      -1.53642618945100     -0.40684141582016     -1.92614366925133
  H      -3.22914894058695     -2.36417005028624     -0.17322367715837
  H      -3.77561273727297     -0.75230580073921     -0.77312066596248
  H      -2.84751819048680     -0.65554391430780      1.44594806157420
