14
Coordinates from ORCA job orca
  Bk     -0.62604043508719      1.64371431343949      1.04903404862728
  C       2.22834151390653      0.12550859494353      1.24662901400303
  C       1.67085321892831      0.28848022388526      2.66666150881688
  O       2.30910573596245     -0.05201642767648      3.62247819933775
  O       0.48455395124106      0.86372962097245      2.68741266595897
  N       1.16671289781636      0.20330129841669      0.22948873965981
  H       2.81003970005954     -0.80768150436332      1.19058459187942
  H       2.93064948039867      0.95966299563374      1.08442643429218
  H       0.72680349991143     -0.71102994135780      0.09462277344638
  H       1.54453813572065      0.47634035440810     -0.67994599413948
  S      -3.79995338874898     -1.64423879935965     -0.98652104750327
  C      -2.80642463696765     -0.59831169522929     -0.33919374517400
  N      -2.04433972916763      0.19344283404671      0.14697223830809
  I       0.52661545003134      3.98543253368279     -0.22365640321661
