49
Coordinates from ORCA job orca
  Th      0.17169751417993      0.70697440638861      0.22409536979349
  F      -0.67390513051907     -0.01630052363129      5.00434425608181
  P      -0.11508174209895     -0.71171730786937      3.68773348070688
  F      -0.18025400134929      0.72008994285254      2.81689920208881
  F      -1.53299132857168     -1.24709917212048      3.16348011490209
  C      -3.65230512348510      0.99074107698530      1.66544471530488
  P      -2.80762377769974      0.00001435979501      0.38458704962342
  C      -3.59929669016866      0.55735606126144     -1.16929815696346
  C      -3.47482932317766     -1.68929499869312      0.60588208508667
  H      -4.74692845556856      0.89229260347946      1.58933608143044
  H      -3.36685984951020      2.04614611475242      1.53491842028079
  H      -3.32801879036622      0.65422285521305      2.66164794045927
  H      -4.69765522086170      0.51701738837605     -1.09336711252974
  H      -3.27810073769406     -0.09439454355070     -1.99644525621391
  H      -3.28331373078885      1.59114590543432     -1.37623520489639
  H      -4.57401046723145     -1.69329615209735      0.53008548825517
  H      -3.18023740888161     -2.07068929891168      1.59401669740161
  H      -3.06023935777315     -2.35792127869445     -0.16435483200811
  F       4.59932642724260     -0.93460163127852      1.13627329211968
  P       3.04622855465300     -1.25822372655171      1.26730305535714
  F       2.75457450370213     -0.13514422538772      2.38545242913123
  F       2.63867598805847     -0.25412531871940     -0.00962377945277
  C      -0.77557818497820      0.87173756498786     -3.98534703990797
  P       0.27583938207019     -0.37225017042432     -3.22993895274043
  O      -0.04539746041520     -0.54465666911687     -1.71326283652186
  C      -0.01991131958743     -1.93920874935306     -4.05644636430659
  C       1.98713501807619      0.10360609941267     -3.47564928629914
  H      -0.55153092712286      0.95775751667023     -5.05975751785605
  H      -0.58391894891003      1.83545976487209     -3.49049742396868
  H      -1.83246716221541      0.59463373788171     -3.85609139401108
  H       0.19758278182267     -1.85957134538047     -5.13230424095603
  H      -1.07220296873882     -2.23061867848051     -3.91915781101858
  H       0.62459317015841     -2.71216240481062     -3.61147159548733
  H       2.21938954086004      0.16226213367657     -4.54998750833504
  H       2.64451595542591     -0.63895909155588     -2.99866709598259
  H       2.13207526228056      1.08786617422240     -3.00205824098172
  C       0.18006058228517     -2.63879147394067      0.99072955676150
  O       0.52038591311442     -1.30193737449859      1.25433120196658
  H      -0.16415834457036     -2.76532777204133     -0.05247419005238
  H      -0.62828389320077     -2.98008196434538      1.66066574825874
  H       1.04867409604720     -3.30709410772592      1.14287940722222
  N       1.64154276266074      2.49654898338911      1.43464289952151
  H       1.33672984608055      3.38266908289842      0.98732581475448
  H       2.64750994929494      2.42928343144554      1.26846433702156
  H       1.51830934557293      2.60073949239854      2.44322672569075
  O       0.46228718837936      4.40167546499818     -0.33537534231326
  S      -0.25299248554351      3.37381164828746     -1.11540497783617
  O      -1.14491394283286      2.50392632151954     -0.04433165062715
  O       0.82147299189617      2.16518984798088     -1.39441755795412
