22
Coordinates from ORCA job orca
  Cm      0.08668557884513     -0.29402146605176      0.40942276204967
  C      -2.08434952577444      6.26768353674878     -0.00441151318705
  C      -3.02141996909048      5.23365163312527      0.05559803911850
  C      -2.59168447078607      3.91404961493712      0.10665617149808
  C      -1.21717505896850      3.63264965119906      0.09807157154251
  C      -0.27779445265162      4.67278809348981      0.04018319758235
  C      -0.71549988592629      5.98955646204244     -0.01235444298785
  C      -0.75982305672801      2.24838957975796      0.16251042896244
  O       0.48754254967776      1.95609038587093      0.18236565576321
  O      -1.58694246404508      1.27215699362418      0.21107944732997
  H      -2.42584495595841      7.30551073596250     -0.04243676728571
  H      -4.08942159267818      5.46312263636433      0.06603657690769
  H      -3.30648418287665      3.09003501155268      0.16120752939333
  H       0.78744734978113      4.43219549160549      0.04221501016508
  H       0.00844589014847      6.80651065855865     -0.05627408527339
  F       0.22691411905856     -0.73867426681421      2.36671167759739
  O       2.30994042586732      0.03577442004438     -0.51101337517777
  H       2.45054327907780      0.99427870985469     -0.58998938837723
  H       3.17715036096271     -0.38966296974020     -0.54796994481342
  O      -1.84124795090652     -1.32395814716224     -0.65084106273350
  H      -2.27339198920158     -2.18059897969424     -0.76919387905047
  H      -2.52838999782701     -0.63942778527574     -0.71767360902384
