28
Coordinates from ORCA job orca
  Np     -0.74066847402609      0.05535175717317     -0.13433543797745
  N       1.16389371123227     -1.61194636906440     -0.37303389263351
  C       2.26928301623335     -1.60809708468653      0.57598275653782
  C       2.42329164601421     -0.20781842364919      1.14194573813210
  N       1.12988628181685      0.22782623842093      1.65855421420983
  H       0.71983662285320     -2.52269733961615     -0.50054025858263
  H       1.42021889424863     -1.30947778951070     -1.32019144219086
  H       3.22234746001667     -1.95220831811635      0.13705300430167
  H       2.02755438063345     -2.30750064972834      1.39468461643188
  H       2.71022965223891      0.48727210617614      0.33451913464109
  H       3.22930152743831     -0.18244751926279      1.89771334639077
  H       1.11950780062796      1.22700342893462      1.86586356091283
  H       0.88235165890491     -0.25347041524007      2.52491863124293
  S      -2.53029770102856      1.08233570067752      4.45399719598208
  C      -2.12657904160596      0.68580394831204      2.96886150813324
  N      -1.80247605016625      0.37386846865224      1.85914828710361
  C       1.32592261205434      2.71260955789644     -2.35877192795912
  C       0.22935989434249      2.96954076976514     -1.34720159719964
  O       0.09298228348972      1.88810352143996     -0.46417189693731
  H       1.42801224058107      3.56555811450257     -3.04838621988284
  H       1.09266078359514      1.80813403097487     -2.94177720957736
  H       2.29546445552452      2.56649414465888     -1.85344513622303
  H      -0.73227929849401      3.13830187760342     -1.86638790723365
  H       0.44395794558968      3.88139378990816     -0.75874416533587
  O      -1.43680415890537     -1.90961572097812     -1.30167283915305
  S      -1.53713946095404     -0.91668084771960     -2.52247752320625
  O      -0.08692763613364     -0.35470989160834     -2.55308659205180
  O      -2.26209104612192      0.30197291408444     -1.75431794787547
