16
Coordinates from ORCA job orca
  Th     -0.70037020902517      0.58262844812798      1.28651935666732
  O      -0.25675500014695      0.27072216965893      3.28112728715655
  H      -0.13668405656763      0.10698709447349      4.22348229396246
  S      -2.49607441576692      5.04281728794869     -0.01053448751168
  C      -1.91963318341395      3.65910278256799      0.40503713302982
  N      -1.46773978978227      2.57378062969580      0.72709376305331
  C       2.36692701336810      0.60662219293143     -0.53743240490080
  O       1.67465294222066      0.74823389221995      0.72752634479833
  H       3.13502764328235     -0.17352101094204     -0.44830184407374
  H       2.81502818723605      1.56855476736811     -0.82139632975190
  H       1.62340096560555      0.29793047872113     -1.28182388313287
  H       2.31474735743825      0.93536944708951      1.43116740699875
  N      -1.56778473359538     -1.42932583361096     -0.56112448773445
  O      -1.94996290678012     -2.23101730867574     -1.32342233927218
  O      -0.42140723481818     -0.85044737844402     -0.64366647277898
  O      -2.24917257925437     -1.02733765913038      0.45554866349007
