11
Coordinates from ORCA job orca
  Np      0.34364772435337     -0.18349534961058     -0.65936556784197
  Br      2.94689845791335     -0.12844906656890     -0.62449215948608
  Br     -0.72868946649529      0.94620524268779     -2.74114209470349
  N       0.37720675147875      2.06218806866957      0.51662579931505
  H       0.94695001360266      2.67799478187560     -0.07461971147527
  H       0.82757816167155      2.08095897777033      1.43738061152086
  H      -0.52220041486069      2.54221117633905      0.62236828111593
  C      -1.23657671453461     -0.77772204653427      1.49646292722542
  O      -1.91512506254805     -1.17848346397276      2.29144987752788
  O      -0.10835258799351     -2.09575002959643     -0.93833472873010
  H      -0.21303686258753     -2.97565829105943     -1.32623323446824
