28
Coordinates from ORCA job orca
  Es     -0.06381308014773     -0.20465994843068     -0.43273236752839
  C       2.95105989168024     -0.23532887678949      0.72197340811230
  O       1.93123746520022      0.55992335554130      0.30329171237775
  H       2.86011504092041     -1.30350250111203      0.40498937181051
  H       3.05923918086605     -0.26878427486469      1.84369493815232
  H       3.95956842797073      0.09378928074630      0.35069204737507
  F      -0.39850828040824     -0.55386662932228      1.70390046820998
  F      -2.21194273503795     -0.31789547290570     -0.50521290659837
  C       0.60117736562428     -2.95272512717720     -2.19573186624114
  O       0.68841024437301     -2.22454761666147     -1.14734330730979
  C       0.54987315214545      1.62951892214180      2.84223716968883
  P      -0.91920298346138      1.99928672285739      1.84666979278737
  O      -0.65132802800381      2.02671991685859      0.34799593909560
  C      -1.33980211179316      3.72035973392503      2.32957325714138
  C      -2.40842875302877      1.05771765965187      2.29009541795397
  H       0.86696487150774      2.50964981858082      3.42598137699578
  H       1.29337814056504      1.35489641023207      2.05497745702846
  H       0.38467065687996      0.74751353244863      3.47098848785232
  H      -0.48610008875976      4.37096432052888      2.08396565420887
  H      -1.56779048275047      3.80202617574632      3.40556273581324
  H      -2.21047062716320      4.04907176026486      1.74117234806515
  H      -3.24165958178813      1.74291146825297      2.52048173309246
  H      -2.21189254339424      0.37144880721616      3.12292713151845
  H      -2.61767870867797      0.45807088827194      1.37956391268319
  O       0.84529267534492     -2.32096804057754     -3.33774678124412
  S       1.46335299511616     -0.57556812863861     -3.38487196790656
  O       1.43825699478789     -0.36504991750788     -4.85545250669981
  O       0.31292090143272      0.20302776072259     -2.70904265643486
