22
Coordinates from ORCA job orca
  Fm     -0.23413721471866      0.50835580569467      1.53996498681850
  Br     -0.24262012961887     -0.30418776166793      4.06441065677135
  C      -0.06652386644655      2.80466128825471      0.95759278314754
  N       0.31014413622251      3.82797815157334      0.54127500092154
  C       2.08737587043166      0.07731418456693     -0.79069914393456
  C       2.41715835486550      1.44709862030420     -1.35097403668668
  C       3.16871148379540      2.14093012102990     -0.20191770245973
  C       2.85253269284221      1.29336589310572      1.03372500181401
  O       1.86220386126193      0.33099601598994      0.60746585426856
  H       2.92824125512171     -0.63321092540690     -0.87883994362597
  H       1.17351361942843     -0.38554556495767     -1.18927878178455
  H       1.48735645811347      1.99243041768091     -1.57352871838070
  H       3.00882481678179      1.38259111305764     -2.27537770837474
  H       2.80487467726047      3.16982744498727     -0.07230669267826
  H       4.25396892425608      2.17072187639516     -0.37780767042926
  H       2.41541941217344      1.87307946939713      1.86219263920293
  H       3.72408814977827      0.73458882742741      1.41091272381671
  C      -1.98520761007904     -1.17769766712506     -0.80953363811850
  O      -1.22543838117074     -0.44406863644772      0.08534557751789
  H      -2.84382811559665     -0.59030243006751     -1.18240124034701
  H      -2.38209621761791     -2.09953827737973     -0.34570639989444
  H      -1.38536217708451     -1.48008796641245     -1.68921354756463
