17
Coordinates from ORCA job orca
  Cf      0.44585556652872      0.29737776398280     -0.17151066082565
  N       2.47888263891291     -0.59953288922134      0.97339045537944
  H       2.85555371510226     -1.38758171317708      0.44288845687476
  H       2.21268267324685     -0.94772619249502      1.89707983837069
  H       3.23197568878262      0.07744598901893      1.10156950333322
  F       1.56155214798203      1.93616067574878     -0.57590320876352
  I      -0.85044327083401     -0.34795296339605      2.41312361231588
  C      -4.14873942431796      2.25547350591585     -0.28256757673618
  C      -2.75100600760288      1.91557667554879     -0.41438026587219
  N      -1.64093038644308      1.61179934999910     -0.48839741651152
  H      -4.33204423072386      3.27340917353890     -0.65499076079407
  H      -4.43338079951252      2.19609652458423      0.77887576342775
  H      -4.75505145380342      1.54132501780541     -0.85887708509515
  N       0.19441764385741     -1.68928291367353     -2.15612550159243
  O       0.08097934663123     -2.54300550369965     -2.97556371136493
  O       1.17335840636400     -1.64344671981397     -1.34156627023484
  O      -0.64686225417028     -0.74853578066617     -2.01534517191126
