32
Coordinates from ORCA job orca
  Np      0.13950852700758     -0.25708606345501      0.07644174787730
  N      -0.15201290258146      2.45536447013029     -0.12205229599320
  O      -0.24456858456559      3.61278273264351     -0.17975001896848
  O      -0.25536006433988      1.65252962731697     -1.12721047733141
  O       0.08740208797564      1.79569913415974      0.97555326051000
  C       4.05949417790195     -0.88271889079248     -0.36220641533940
  P       2.95202597469780      0.49360081472062      0.05918989322996
  C       3.25409470905569      1.81856397769624     -1.15260940914290
  C       3.45968984673815      1.13944275563117      1.67662051286509
  H       5.10178683701639     -0.52076411494818     -0.34140017436445
  H       3.84688358440017     -1.26714070088122     -1.37180432690924
  H       3.95056973275815     -1.69570365565842      0.37157825158851
  H       4.33057692589983      2.06197107902677     -1.14893226696625
  H       2.69833091423166      2.73005056883365     -0.88278132096484
  H       2.96980645582359      1.50678409232680     -2.16927946386886
  H       4.48838614005968      1.52977190994762      1.59591746299776
  H       3.43538863869996      0.33779125129670      2.42949098413446
  H       2.79076027719385      1.95409161451999      1.99407763843779
  C      -2.74486966856927     -1.32440793916741      1.42966393254289
  C      -4.18817969594223     -0.92506739964123      1.24363437809924
  C      -4.34462865316669     -0.90254354453518     -0.27264400321988
  C      -3.07184359832179     -0.23092004282081     -0.72979336555308
  O      -2.05207719841859     -0.69283954720623      0.25904308842371
  H      -2.57611828247886     -2.40767486407751      1.33888790309018
  H      -2.26578714536658     -0.93766979549757      2.34072819402429
  H      -4.38009535982097      0.06821105735627      1.67999484929909
  H      -4.86334528446515     -1.64230969565073      1.73316754778174
  H      -5.22957370154696     -0.34094288391309     -0.60626498711002
  H      -4.41772488885007     -1.92206878721851     -0.68304016053572
  H      -3.11632923717249      0.86640714868370     -0.65369704018311
  H      -2.72440266121042     -0.53060615498742     -1.73036630246672
  Br      1.02721209735688     -1.64919815383911      2.06924238401548
