20
Coordinates from ORCA job orca
  No     -0.98927529808982     -0.33869664679063     -0.68605263589713
  C      -2.29219577689734      6.08717323851706     -0.37814716857696
  C      -2.74382695928437      4.79963315303308     -0.67079003291168
  C      -1.98797314725605      3.68634694257043     -0.30178838061008
  C      -0.77296505670532      3.85275118628330      0.36864032037297
  C      -0.32854857513633      5.14521109146859      0.66394934069967
  C      -1.07849450000487      6.25870694544037      0.29224170294016
  C       0.08786826458660      2.66294873411528      0.79376408686717
  O       1.10632883523772      2.90407478612292      1.43769465406102
  O      -0.35077588837573      1.52607227960645      0.43462971234495
  H      -2.88651977138589      6.95925313881751     -0.67216943024137
  H      -3.69461472713055      4.65106162498882     -1.19225501185369
  H      -2.34584939188104      2.67643490429323     -0.52948007123937
  H       0.62532081852629      5.22635404365223      1.19332269630791
  H      -0.71839671007594      7.26750973216203      0.52371546523584
  N       0.51676637388668     -2.90452885088196      0.76926096011884
  O       0.37090160300488     -3.91615726809475      1.42155077382500
  O      -0.55117255628833     -2.23841452068437      0.54643688157388
  Cl      0.21876123719381     -0.38135772096847     -2.99828699746748
  I      -4.07383877392428      0.05552320634869     -1.01623686554967
