30
Coordinates from ORCA job orca
  Md     -0.03162096852812     -0.08486039032743      0.27943413150330
  C      -5.55645145861809      0.70324225703418     -4.00747489498642
  C      -5.00996605645449      1.81076667001966     -3.35705908982110
  C      -3.89421525167229      1.65604264715165     -2.53822101136515
  C      -3.31747579789550      0.39490074858124     -2.37210564656695
  C      -3.86347646035506     -0.71128879367845     -3.02656334867566
  C      -4.98279440677872     -0.55829049934070     -3.84076979645286
  C      -2.12070578010521      0.22645915900118     -1.48342508807505
  O      -1.57567499592511     -0.90381965880106     -1.40852119454440
  O      -1.70916147189479      1.22419897002502     -0.83343997112502
  H      -6.43539057179130      0.82376811172072     -4.64781970579819
  H      -5.45920524466406      2.79943178719576     -3.48914089559265
  H      -3.44243219282110      2.49866984623317     -2.00897170845999
  H      -3.38648869577330     -1.68231745625982     -2.87210971750693
  H      -5.41328010421030     -1.42621378873664     -4.34886985634185
  N       0.86954307455481     -2.24087020362129     -0.50270577217149
  H       1.37717730668424     -2.81359291925026      0.16781147757112
  H       1.52944312085925     -1.85913782576439     -1.18378529381627
  H       0.17219260317490     -2.79747872434014     -0.99257973424905
  S       4.04084868030043     -0.44726216127773      3.43822597670506
  C       2.78032113580200     -0.35790380560000      2.42868541200692
  N       1.85655576003837     -0.29218390860882      1.68872206968763
  N       1.43493901673518      0.47689829130166     -1.52324940339910
  N       1.83602213901192      1.59243684865158     -1.62578900454689
  N       2.21701794337116      2.68290816336759     -1.71026730512855
  F      -1.37683845538781     -0.72056476595032      1.68843563978577
  N       0.40014178641314      2.30075879096263      0.90683755951204
  H       1.01207483775245      2.74217528076012      0.20964303390603
  H       0.86444155001401      2.37541151153100      1.81125253795094
  H      -0.46674104183648      2.83621581801988      0.93182059999489
