23
Coordinates from ORCA job orca
  Es     -0.22665472132796      0.61005388708368     -0.15041770865823
  C       3.83497650630534     -0.65731788156322      1.41996203930665
  C       2.72241526642613     -0.80470084688315      0.41368778673529
  C       2.40293666173584     -2.08890125844532     -0.08679657065545
  C       1.24488758137770     -2.32385642546287     -0.84835169583286
  O       0.34456155479534     -1.48368025014345     -1.09141449382545
  C       1.02464076168964     -3.70347687694873     -1.43602659399764
  O       2.10152007522392      0.23817564667621      0.11864195785884
  H       4.50036803608263     -1.53286172224036      1.47399741767284
  H       3.32473997669266     -0.51669852757151      2.39109820107734
  H       4.40981782068571      0.25696831997657      1.20807757423124
  H       3.06181527097380     -2.92818174583017      0.14890000866069
  H       1.83262549501935     -4.41238258585301     -1.20006543667048
  H       0.92821019414810     -3.60596245303903     -2.52990018947242
  H       0.06324480582827     -4.09400189254909     -1.06609807433874
  C       0.81576969959626      2.62092239239464     -1.24741286766208
  N       1.31632194351227      3.53920205450885     -1.77248381772146
  O      -2.50316817175498     -0.62431909345287      0.32884352574928
  S      -2.91540692548729      0.61604099056679     -0.48369691687736
  O      -2.19960381789125      1.78712148109339      0.30410199544489
  O      -1.95798557118973      0.52179701738180     -1.73708430892367
  C       0.29038565171358      0.12788844079292      2.29675509907772
  N       0.74578190584458     -0.15532867049205      3.33858306882104
