25
Coordinates from ORCA job orca
  Cf     -0.02176888741461      0.75172875596142     -0.03334944465609
  O       0.26021134145836      2.51127944442642      1.13172881654165
  H       0.78921484466919      3.14711943877493      0.63684483598222
  C      -3.14883795320130     -0.28441275426311      2.76642916592382
  C      -1.64386405967336     -0.02088794015398      2.80334316312792
  O      -1.07632927589978     -0.16235895525595      1.57923214646551
  H      -3.61785820210805     -0.18538589981017      3.76406418743762
  H      -3.34161923425588     -1.30021487401970      2.38183469992827
  H      -3.63403814952194      0.42371307334822      2.07399913971955
  H      -1.19765211214079     -0.72299445876797      3.55354075989840
  H      -1.48208098170352      1.00036379524107      3.22926658752209
  N      -1.24652629693545     -0.76732642518940     -2.32701269221597
  O      -1.89908748347810     -0.43292380262120     -1.32356201640924
  O       0.00805624890323     -0.53501009594600     -2.29559288170693
  O      -1.75328924573084     -1.29429696873255     -3.29137102484688
  F       0.60247479039222     -3.12580806420143     -3.18574031989810
  P       1.43233742590040     -2.52381397887134     -1.93875760877054
  F       0.27395639183135     -2.72906699392020     -0.83946803034976
  F       2.14168427518332     -3.95556961544134     -1.59260548138827
  S       4.76637504210508     -1.04058529348785      0.85835289730910
  C       3.23842169347966     -0.61058160607507      0.50150804334466
  N       2.12758614303953     -0.30710422719291      0.23239426770349
  N      -0.00596584888319      2.81329983053446     -2.23686668312560
  O       1.05533737463060      2.43451391797402     -1.70850265385446
  O      -1.03273784064605      2.26842369768964     -1.78280987368248
