18
Coordinates from ORCA job orca
  Es     -0.04285717287509      0.95052877028146      0.91074680561497
  I       0.58578653957084      0.23525861613479      3.56312109285907
  N       1.77621653321169     -0.27415255370122     -0.18113766986426
  H       2.48062903794149      0.36277836670408     -0.56828643487246
  H       1.56094997793439     -0.93468448139299     -0.93407422735935
  H       2.26238640204104     -0.81877257806520      0.54024176578180
  C      -4.89126015470538     -0.26013236666779     -0.33379975144318
  C      -4.23373439208977      0.81763506939601     -0.92507525802148
  C      -2.91848200330450      1.07156923679764     -0.56491905753697
  N      -2.26088495446439      0.31146970083337      0.33163698978018
  C      -2.89851795082673     -0.72431525578260      0.90786711908095
  C      -4.21291227818852     -1.04399586756898      0.59867280183925
  H      -5.92893319768227     -0.48479686797952     -0.59498148415887
  H      -4.73176687156982      1.46069319639069     -1.65349374772313
  H      -2.36882358179459      1.91652342123550     -0.99602775664118
  H      -2.33586076510146     -1.30400671148459      1.64850241205156
  H      -4.69647301119027     -1.89167145212012      1.08836244712666
  F       0.15703784309341      2.76337175698947      0.12764395348643
