19
Coordinates from ORCA job orca
  Cf      0.67552752584517      0.90842815187619      0.64789850396546
  O       0.61123955998255     -1.47591881026069      0.86054468309326
  S       1.57226718057957     -1.35854276994872     -0.37129707889773
  O       2.58739605597777     -0.27302949450720      0.19306233522102
  O       0.71187362812429     -0.45217425046574     -1.31989300885453
  N       0.10518526790103      1.23303934750239      2.80510925190020
  N      -0.47434427035502      1.00498680402712      3.82239221325325
  N      -1.04115668542434      0.79143225399573      4.79867361821033
  C      -3.74951259356780     -0.71331668896260      0.79013747779895
  C      -2.48024483909965     -0.24417366103518      1.12637974549713
  N      -1.72537762347380      0.36996300856448      0.21835786597537
  C      -2.21036419674887      0.50951913955677     -1.01400884326863
  C      -3.48283696430543      0.03566428386391     -1.32901083498112
  N      -4.25296713248522     -0.57339424374913     -0.43218724104429
  H      -4.36798801560424     -1.21794406685417      1.54066713274074
  H      -2.06466911550058     -0.36811704336773      2.13130765235869
  H      -1.56626802938800      1.00287754773555     -1.74900405998603
  H      -3.88061430398482      0.15532669993217     -2.34283717920844
  I       0.34095455152744      3.59217379209685     -0.67439223377364
