26
Coordinates from ORCA job orca
  Md      0.23696165911945      0.31800732458424     -0.47939351764675
  C      -0.55580172292633     -0.94015773946752      3.96602636375688
  C       0.25261673663455     -0.79871197000973      2.69777106165935
  C       1.54006422949592     -1.37535193683048      2.64814678788072
  C       2.36580019788188     -1.32788073965107      1.50985849218778
  O       2.05403636971410     -0.79989397353890      0.41158931065920
  C       3.74335954526726     -1.94099354414621      1.57687405464901
  O      -0.29419234389929     -0.16940517585907      1.76053584338709
  H      -0.01048075467334     -1.44741762859772      4.77425595945189
  H      -1.47465123568806     -1.50411819744991      3.73702973649632
  H      -0.87256144290564      0.06016965948202      4.30027175040051
  H       1.91699461775101     -1.87963188020198      3.53985004943689
  H       3.96377492334162     -2.41029504960897      2.54573092099714
  H       4.48652497509097     -1.15322234017440      1.37313308249462
  H       3.84272192509592     -2.68582795485226      0.77143241892093
  O      -1.07550824151989      2.41897579610577      0.09362060142124
  H      -1.63021228773330      2.10541871358013     -0.64715560910305
  H      -0.25414468688084      2.73964159633970     -0.35925928497527
  C      -0.82550751611935     -2.24747538666141     -0.44379859477278
  O      -1.12716436376802     -3.33459031210432     -0.35723339415919
  O      -1.81436838758494     -1.67340825966565     -2.82082693018558
  S      -1.18187694633143     -0.32694567150660     -2.96352926380814
  O      -1.64878892311948      0.53958492392519     -1.69348718696853
  O       0.35538945629693     -0.48951877143949     -2.53114264970795
  O       1.27663053179683      2.14710367806295     -0.90694213170409
  H       1.62208368566337      2.22084483968582     -1.80195787076843
