15
Coordinates from ORCA job orca
  Np     -0.02931815348827      0.79098858299230      0.70385044560018
  O       0.02282682271231      0.19696137677616      3.00139322212073
  H       0.75233523316748     -0.25741449629247      3.47156124301147
  H      -0.64207090384132      0.37432003868928      3.69851500119963
  S      -1.37888253565505      5.67334001941524      0.02670694962296
  C      -0.97056555219272      4.13158555424277      0.23470033549234
  N      -0.67201062220522      2.98655624059596      0.39064973548156
  F       2.14149632221684      1.52332080393815     -0.58160260795057
  P       2.86907327293572      0.03915795314737     -0.56787299000013
  F       2.41177140983748     -0.11464821402584      1.02205746665703
  F       1.39833577502752     -0.61211594635109     -0.98428240878249
  N      -1.67071072552788     -0.67833830752372     -0.44632098526767
  H      -1.64396095090709     -0.61303438192909     -1.47653518620163
  H      -2.66528154359281     -0.51747426561753     -0.22021655933192
  H      -1.54253784848692     -1.68760495805759     -0.26920366165159
