24
Coordinates from ORCA job orca
  Md      0.30745631087755      0.51062723128780     -0.61644912260114
  C       3.53789507402134     -0.39115748982846     -0.05244901720881
  O       2.34704546451276     -0.72743131764895     -0.75718442710280
  H       4.41889430160732     -0.79168809690804     -0.57826110203638
  H       3.50898685318380     -0.79428240513323      0.97309382878625
  H       3.60283631974944      0.70497891786969     -0.01617074859811
  H       2.18637665853640     -1.68789535052786     -0.63479399866635
  Br      1.51345456629976      2.88172343820212     -0.19379501036090
  O      -0.41151605880737     -0.17260828966772     -2.36564099856628
  H      -0.59385557497283     -0.51835904818728     -3.23855817862925
  S       1.37610619063450     -3.39737619672950      0.82297641545717
  C       0.46074176534210     -2.07696750573001      0.95280202878602
  N      -0.15488231641127     -1.05695578621356      0.98376753492782
  C      -4.40575283752164      2.20506568515419      0.72199472039721
  C      -4.23245894037146      1.24662671864085     -0.27369639314185
  C      -2.93919105984298      0.90378186081782     -0.64928142956168
  N      -1.86165983676996      1.46457709633511     -0.08696812268166
  C      -2.02403179061666      2.39212432856904      0.86339377692511
  C      -3.28233129173421      2.79078910579927      1.29994384304726
  H      -5.40995865869655      2.49471344777431      1.04306191155004
  H      -5.08547617967420      0.76574968943626     -0.75663234220260
  H      -2.73330437418376      0.16259192135316     -1.42802793530440
  H      -1.10684953528367      2.83118195465854      1.27093591527913
  H      -3.37222504987827      3.54929009067637      2.08003885150616
