20
Coordinates from ORCA job orca
  Lr     -0.17083022876332     -0.17000158141992     -0.96118556665255
  N       2.29011470982146     -1.39294036638479     -0.99157406175121
  O       2.15172929179956     -0.15754955939577     -0.70816195261844
  O       3.34615169672006     -1.93518401373425     -1.00402849284916
  O       1.19989993217655     -1.99646411772040     -1.25844951510796
  C      -1.04612091390790     -1.05272392970231      3.00311739160888
  C      -1.94057927079881     -1.07605753258591      1.77725730965254
  O      -1.26714410870701     -0.66560094369030      0.64116802692925
  H      -1.59056318579412     -1.38471521459012      3.90181840152564
  H      -0.66709202241899     -0.03397236126807      3.18783374421563
  H      -0.17833409309641     -1.71712561007016      2.86136906134328
  H      -2.82208173924746     -0.42642296314208      1.95222024864453
  H      -2.33865553432745     -2.10056649679659      1.63425248203456
  C       1.01220514951640      4.36380857952852      0.74299392425190
  C       0.60399470291875      3.08884275742145      0.19869012906572
  N       0.28385088740780      2.06761369111106     -0.22986641594251
  H       0.48812320315786      5.17772817820254      0.22104562903999
  H       2.09757204032276      4.48864643013248      0.61422235877917
  H       0.76800572950964      4.40357180651599      1.81489033689202
  Br     -1.39654624628936      0.25831324758843     -3.24661303906155
