10
Coordinates from ORCA job orca
  Bk      0.34661164595854      1.03750055381146      0.52607972362928
  F       0.47321674145877      0.59364584699982      2.45371731059618
  O       1.85853926455820     -0.67353402585343     -0.20532505657804
  H       1.80669700992475     -1.20990370179482     -1.01165537263541
  H       2.40541913658331     -1.18071367260281      0.41590374659113
  S      -3.99274477913036     -0.89739644611490     -0.57069284333354
  C      -2.60561582099823     -0.23002832475559     -0.31798743201678
  N      -1.52510712214759      0.29571980104286     -0.13549804910322
  C      -0.69783251517483      3.55811453033627      0.50896917580270
  O      -1.21578356103254      4.54999543893110      0.51098879704770
