23
Coordinates from ORCA job orca
  Th     -0.49341903980862      0.95285485404510      0.01378300338573
  C      -0.94577575297737      0.16294229902762      4.78181931658681
  C      -1.11963250878164      0.43971237679066      3.42790079723774
  N      -0.09264795959153      0.33954590813498      2.58239896633722
  C       1.09524428328584     -0.04281654338682      3.05766865900820
  C       1.23178576541493     -0.31883035387932      4.42240085098815
  N       0.22696426056254     -0.21602479864602      5.28799987371277
  H      -1.79213157027978      0.25042268373853      5.47448473442918
  H      -2.07888374294190      0.73160235627373      2.97854784448300
  H       1.94059349155028     -0.15810223634011      2.34392065274442
  H       2.20556480376591     -0.63910965461660      4.81151225996763
  O       3.41790717474137     -0.77610025403475     -1.35124286520405
  S       2.71069923492990     -1.14434423147613     -0.09275034806551
  O       1.22768747262521     -0.24922785135156     -0.19651720606679
  O       3.33580567097799     -0.48216878894641      1.11714515534854
  O      -2.81302674073481      1.09456030463797      1.00471459755150
  S      -3.09731520844194     -0.20410307799318      0.15024574860952
  O      -2.02106755481141     -1.17255529851615      0.69021344612701
  O      -2.46702852761523      0.23816177066278     -1.23617863726518
  O       0.03081003840532      2.93993394961811      1.06757424621565
  S       0.36344860300373      3.86882242358026     -0.21657250272380
  O      -0.69113381774698      4.90532446436942     -0.32764164085688
  O       0.05505162446820      2.72589969830788     -1.32702695255093
