17
Coordinates from ORCA job orca
  U      -0.32029962871885     -0.03000149522114      0.65549915147409
  C       0.05088643947137      2.67892810803103      1.10810972852815
  O       0.06450038477456      3.77634293308117      1.39858332535830
  O       0.23338378356087     -1.75287048114744     -0.55438127799270
  H       1.18976677373985     -1.72976226744052     -0.68327930425720
  O      -0.21755215806044     -0.46919208300236     -3.04881917000082
  H      -0.64449518739774      0.27638462150516     -2.58304098678826
  H      -0.12487458245260     -1.08978959697555     -2.30124414747315
  O      -0.75614828509778     -1.45035064942943      2.37687881775602
  S      -0.33317174968506     -0.57562797552504      3.65946867098778
  O       0.25925618742501      0.64865622600293      2.81016448659745
  O       0.79455394326534     -1.26544679611125      4.34559779695415
  O      -1.26582087454384      1.41744681037278     -1.23748482966095
  S      -2.63152616890051      1.20083127540346     -0.48673703911362
  O      -2.54523600109713     -0.34504358631169     -0.19176059464272
  O      -2.33644025444019      1.79873455124863      0.90818572952129
  F       1.62191737815716      0.51906040551925      0.02355964275217
