21
Coordinates from ORCA job orca
  Lr      0.76569070675698     -0.41509559236577      0.69976477565528
  N      -0.96881734328327      1.71425944371113      1.58968939839249
  O      -1.76312935880785      2.58087146510927      1.85096734372494
  O      -0.95425942407095      0.61134867916134      2.20552319219189
  O      -0.10791937715414      1.84558359033322      0.67633260934764
  O       1.24024229300016     -1.60350617880911     -1.08289322064692
  S       2.60356700548938     -0.81387063547655     -1.50002866738141
  O       2.26767400568997      0.01532752323661     -2.68196035740467
  O       2.65780246277501      0.14802296611405     -0.20606722371499
  O       1.28681324478368     -1.61548219585975      2.30221901979384
  H       2.04269099301480     -2.20672209424669      2.31537101867776
  C      -3.88850344771041     -1.47481571587109     -0.06433684816264
  C      -2.69720518837650     -0.99645236928508      0.47830681685196
  N      -1.53709536699534     -1.18081923904623     -0.15657792782948
  C      -1.55818929692753     -1.83505128527865     -1.32151921004486
  C      -2.76542996519938     -2.30510141811433     -1.84194554944099
  N      -3.92792061479609     -2.12989805205468     -1.22122298253504
  H      -4.83628590390637     -1.31644959842527      0.46275025587893
  H      -2.65560793840501     -0.45160346370333      1.42790705081804
  H      -0.57523669518281     -1.96802532933641     -1.79907276660556
  H      -2.77818079069422     -2.84262049979260     -2.79680672756620
