36
Coordinates from ORCA job orca
  Es      0.15690758111420     -0.09887353490844     -0.58614637156538
  C       0.61545411493628     -0.28585229314846      2.99866888414746
  N       0.47039360826386     -0.09371008997033      1.84492747330712
  O       2.35546912485629     -0.14765574312063     -0.86947680257921
  S       2.48622517958990      0.75155268038033     -2.19192104857137
  O       3.26974661137841      1.97678589183331     -1.85002980680762
  O       0.93067839771347      1.17034457410891     -2.24973760439930
  S      -1.11901661163706     -1.89658311778543     -2.41925690424373
  C      -0.20261330217016     -2.09139164135292     -3.80417644496313
  N       0.38665504984130     -2.28504195865865     -4.79838233554867
  C       2.14479209943625      4.09633074653799      0.18961243529215
  O       1.18475147618565      3.63856737315362      1.12549531088138
  P      -0.07020006767865      2.76613921791325      0.54669519012579
  O      -0.96883302200543      2.98465295890970      1.89763885848955
  C      -2.07514667248228      2.14422634000348      2.13746900308993
  O      -0.75802683112316      3.89119350220902     -0.44453255069815
  C      -1.01969251024711      3.59960416623360     -1.80869616585078
  H       3.01473618142258      4.44519836911316      0.76815555082823
  H       1.74060771567815      4.94842170229421     -0.38828336407442
  H       2.48010815438880      3.30501110288546     -0.51011228533787
  H      -2.88017102387598      2.29871954890743      1.39827768301168
  H      -2.45877174383800      2.39754551252660      3.13840805777836
  H      -1.78498365111219      1.07961614442406      2.14409242785181
  H      -0.95162607460928      4.55035189729042     -2.36436280967667
  H      -2.03241835814949      3.18056843612087     -1.92470192833101
  H      -0.28973993095024      2.88158769413585     -2.22363369195771
  C      -0.30386025707615     -3.33350936290151      0.66333354552717
  O       0.67468926320713     -2.35815210522655      0.40059554421469
  H      -1.10195454063408     -2.94393646057996      1.31831742051504
  H       0.14721609850431     -4.23094870853014      1.12964733647118
  H      -0.75183023354374     -3.61134051459939     -0.30245572445695
  H       0.91627220849512     -1.91824026076806      1.23801440792598
  N      -2.77016561108046      0.09323243202130     -0.14303556884295
  O      -2.13830655117849     -0.91559089615635      0.24625298462429
  O      -2.10359564694026      0.98121064967941     -0.74179443788172
  O      -3.95682452720659      0.22783379178821      0.06047742317227
