45
Coordinates from ORCA job orca
  Th      0.52284736282159     -0.92768174577532      0.00037300495689
  F       2.35533293208303     -0.28299403434613     -0.62619141959134
  C       3.23018138576964      1.58541145789870      3.03729648970364
  O       1.80757512130226      1.41667990292287      3.26524363148811
  P       0.69914282321267      1.06550868860630      2.19929624368371
  O       0.52183118845651     -0.67500955461853      2.39214908507973
  C       0.38383312495714     -1.33411655214527      3.68100253787210
  O      -0.63780655206577      1.62776864705522      2.82056081836345
  C      -0.86453857053313      2.13857110540889      4.16506901726222
  H       3.53202482365446      2.48531484590888      3.58650444199849
  H       3.44313782596357      1.70829270797574      1.96507218483348
  H       3.75071096364992      0.70817239970681      3.44306893781511
  H       0.69239015069727     -2.38106808114616      3.56551147369774
  H      -0.66535942036024     -1.27439795675383      4.00293670355067
  H       1.04162407309440     -0.83317550104391      4.40521776481679
  H       0.07045766435204      2.52906041698614      4.58598270849481
  H      -1.26487280368207      1.32841453868501      4.78950782296914
  H      -1.60485235290475      2.94104141502849      4.06854940657666
  C      -1.99428466916998      3.76949660058800     -0.05183746340611
  O      -0.90532545685098      2.82737439134759     -0.21793938559445
  P      -0.82452390757319      1.50141289559434     -1.06454304493234
  O      -1.92377587400128      1.55001474365030     -2.22093537184575
  C      -1.87748590833403      2.43376849082861     -3.37326823056129
  O      -1.59232474535087      0.25991080790954     -0.13134576257068
  C      -2.97002044854863      0.31388258851209      0.33725511199254
  H      -2.24692575985903      3.79301857373711      1.01606525165914
  H      -2.86751039559616      3.47260225325644     -0.64928417907652
  H      -1.62623318105657      4.75350302291785     -0.36932414038768
  H      -2.76000739884930      2.18654315848906     -3.97449037815382
  H      -0.96240857269407      2.25561965066033     -3.95643837238972
  H      -1.92859442791323      3.48410426457797     -3.05423689057390
  H      -3.25935544261686     -0.69963818577490      0.63926466513699
  H      -3.60814413622043      0.65456437954097     -0.48945999260755
  H      -3.02032977702622      0.99781379754272      1.19593246712801
  F      -2.76057204161631     -3.07252903707877     -1.00100701047263
  P      -2.29867619078212     -3.93436076524620      0.24310294400874
  F      -0.81594978410029     -2.97441502453525      0.37152821392302
  F      -3.01050811987783     -3.10156785246238      1.37228323699882
  O       2.05974676451070     -2.87300484053271      0.14020631680377
  H       2.99670217147549     -2.73710665061094     -0.09209015686497
  H       1.98026798411676     -3.80012673886323      0.42092023454244
  N       0.07973745109569     -1.51085503743706     -2.49542969607416
  H      -0.83250775111951     -1.21953880833653     -2.86829351462479
  H       0.16457103541471     -2.50179217471831     -2.75390472528441
  H       0.77457884207520     -1.03498720391071     -3.08618098034450
