26
Coordinates from ORCA job orca
  Th      0.73785472049309      0.45871124511117      1.10965233009347
  C      -3.81851140100847      2.02719872129180     -1.18302973788526
  C      -2.72499682090496      1.71634542188187     -1.98806190340585
  C      -1.54174166771635      1.30842740271690     -1.38333817378072
  N      -1.43022202127964      1.20837744392358     -0.05213021706085
  C      -2.47750248536609      1.50955347638255      0.72664663353177
  C      -3.69476020164935      1.92303553184338      0.20086108223298
  H      -4.76192894403075      2.35104097756356     -1.63074474660474
  H      -2.78092238361557      1.78951533493374     -3.07602374530653
  H      -0.64365190115372      1.04999373032142     -1.95530148058101
  H      -2.33077275104760      1.41207837268786      1.80888055320464
  H      -4.52520157947270      2.15841105859626      0.86916430386957
  I       1.31643951339146      3.32101357705542      1.85101978551407
  C       0.22233418521175     -3.90290231689904     -1.05977057924103
  C      -0.11572043397985     -2.72214894993047     -0.30614097972003
  N      -0.34332794524150     -1.75173252894920      0.28029183839793
  H       1.16665647466794     -3.65842181216975     -1.57665705090929
  H      -0.56836650535285     -4.13183035059038     -1.78841007056368
  H       0.36635946055168     -4.75771761282472     -0.38373514535737
  S      -1.91379027557880     -1.30471144491148      5.09984245743304
  C      -1.03015902974621     -0.71856524843109      3.92433260255034
  N      -0.37067272491399     -0.26823545589325      3.02752773108314
  O       2.37488625584765     -1.83810128974629     -1.52023820224470
  S       2.68253968429399     -0.50672883754714     -0.96795749577241
  O       2.59128343403999     -0.63776339058564      0.68110274189010
  O       1.32503161796503      0.39581486329493     -1.06759865159969
