35
Coordinates from ORCA job orca
  Ac      1.27150271678335     -1.19407444562168     -0.98302612849543
  N       2.64321940184270     -1.20913304509098      1.03297037867715
  N       3.10909698533489     -0.81855651680357      2.06675125882980
  N       3.53623327435138     -0.44497207425214      3.06189719313766
  C      -0.88822007142491      3.33029124589792      1.35976731724193
  C      -0.32584053551437      2.34726810143185      2.17097176443268
  C       0.32491220502203      1.27767980554618      1.56351296551291
  N       0.43320595020775      1.16065376725363      0.23816828026036
  C      -0.09079225954530      2.11200062298548     -0.54080987755554
  C      -0.76545392758775      3.21368047084444     -0.02225824066656
  H      -1.40718770988240      4.18569517072195      1.80171168795036
  H      -0.37960070420155      2.40677183513699      3.26024430300089
  H       0.78328223698964      0.48397447351106      2.16315817927969
  H       0.05393941628810      1.96429884873275     -1.61736695683734
  H      -1.17847404666361      3.96769724638120     -0.69608175279886
  F       1.11987803463898      0.32105841955278     -2.61332002311204
  N       0.96990949312133     -4.11804012776127     -2.02376062289680
  O       0.17365362515786     -3.58454046707672     -1.21460063245276
  O       1.90604651792394     -3.37264094175943     -2.37025053863109
  C      -3.55913181336775      0.24943378956896      1.53058482684088
  O      -2.58118002877131      0.06703062119154      0.52661725373352
  P      -2.20034294232461     -1.43870342882367      0.00330780210593
  O      -1.38251969040510     -0.93129296830368     -1.35209143490149
  C      -2.06180581988134     -0.28663449849844     -2.42588519158027
  O      -0.75336550666262     -1.70520515953962      0.79049347561949
  C      -0.60567250092188     -2.83703012094917      1.65436557476920
  H      -4.10438135543825      1.17889632690119      1.31246069455204
  H      -3.07936667982597      0.34522487308560      2.51843774032583
  H      -4.27997039234585     -0.58740416512414      1.56046758089828
  H      -2.61680864258239      0.58763756011926     -2.05145498153224
  H      -2.74830563097358     -0.98852695668924     -2.92607070065896
  H      -1.28079688508302      0.04289389354618     -3.12473383891497
  H      -0.74839951383560     -3.77276783888632      1.09375604120709
  H      -1.30947473203018     -2.77525336899853      2.49917528345729
  H       0.42341153160762     -2.79511094823030      2.03849131920128
