27
Coordinates from ORCA job orca
  Md      0.40426867066382      1.18812968097630      0.94930998016363
  C       4.70886599805925     -0.57335327926037     -0.81637976663933
  C       3.44874646324295     -0.07305950627467     -0.33354796518362
  N       2.43505414319612      0.33308117150450      0.05343409231017
  H       4.58464111483519     -0.97480480184547     -1.83482099550284
  H       5.06990450633792     -1.37285335996693     -0.14964614092274
  H       5.44813754476948      0.24362288043705     -0.83494737667877
  O       0.44353732138801      1.06250906504611      2.89826280676964
  H       0.47841956848416      0.91802138029965      3.84875719403243
  C      -3.94409725228340      0.42472285507615     -0.56360806693135
  P      -2.65355634413183     -0.64386608587382      0.06726906567499
  O      -1.33411952159575      0.19375348966670      0.26201067333691
  C      -3.16075111107309     -1.34182077550889      1.63560144038614
  C      -2.35265345879775     -1.96226842320967     -1.10590904416607
  H      -4.86874303800968     -0.15316981884670     -0.72003274951587
  H      -3.62990189435951      0.85844337300036     -1.52527871948842
  H      -4.14810277747848      1.23217487519616      0.15585592116958
  H      -4.08593296275168     -1.92562260465617      1.50597425072541
  H      -3.34567619058473     -0.53548536971854      2.36175941939116
  H      -2.37138918659689     -2.00554052140620      2.02048475485885
  H      -3.27279091174117     -2.54839609701080     -1.25810266364835
  H      -1.56446792291416     -2.62980199361335     -0.72551652494484
  H      -2.03766246443515     -1.53632742847662     -2.07069065879206
  N       0.05988805293167      3.60096302257061      0.77676230087759
  H      -0.09253396688692      4.01519441172339     -0.14892192359399
  H       0.84845569413790      4.12330932114826      1.17620362803237
  H      -0.74654007440626      3.89654453902291      1.33851706827935
