24
Coordinates from ORCA job orca
  Ac      0.12038950574558      0.03559634548561      0.54280763517835
  O       2.27487638601227      0.63782843789755     -0.94076851465426
  H       2.15640666938575      0.65978946187009     -1.89792918618968
  H       2.63833484112950     -0.25591487844638     -0.73677600188664
  O       0.22416446513686      1.60743334295586      2.11277617112271
  H       0.30912627094497      2.31432684470093      2.75348066724070
  O      -1.10056215234917      0.44699459555830     -1.29750105891942
  H      -1.52773272264682      0.69089643156743     -2.11972815068433
  Cl      2.09514086493266     -2.03466607977968      0.36804985541312
  C      -6.54696885594741     -3.07288934371912     -0.08652773972616
  C      -6.61088368941469     -1.80690571079400      0.49596771836396
  C      -5.43899258937657     -1.15578449611017      0.86719742831439
  C      -4.19954597659016     -1.77331016550123      0.65466978587266
  C      -4.14059053968264     -3.05063146968194      0.08391472255577
  C      -5.31415915592577     -3.69441938837924     -0.29090016469511
  C      -2.92578377224237     -1.13063587234572      1.03739272302654
  O      -1.87594178144559     -1.73294557295001      1.15398595722731
  O      -2.91326308908846      0.18094539380678      1.27165459331251
  H      -7.46879079576347     -3.58251366856901     -0.37911330046760
  H      -7.57823369004685     -1.32965866544274      0.66940127512447
  H      -5.50582731670723     -0.17841259337648      1.35618832790114
  H      -3.16274690363859     -3.51607167376462     -0.06104836171419
  H      -5.26949703297681     -4.68778209014057     -0.74376253176873
  H      -3.69081893944478      0.63013081515843      0.91316815005247
