21
Coordinates from ORCA job orca
  Lr      0.67894364873959      0.19382253551638     -0.47679933018778
  N      -0.55963293189358      1.12827536582589      1.82137517035201
  O      -1.14998892919624      1.55505959588060      2.76385805080857
  O       0.20008840574993      1.85005607255523      1.10327008917114
  O      -0.65328185319521     -0.08253747906303      1.44458016913898
  N      -0.40973382052223     -1.95211334600704     -0.77545278865398
  H       0.20503790783433     -2.73079019806794     -0.53353555860531
  H      -0.68848412905910     -2.07689399051706     -1.75033502654727
  H      -1.24328695406226     -2.03111769940782     -0.19064484422369
  N       2.56729850402118     -0.65046334939878      0.09489643312183
  N       3.62952773724435     -1.07937981307604      0.44950995705914
  N       4.63705894103137     -1.49298653520641      0.78603066050836
  C      -3.42884849912465      2.85509185545705     -1.64807532327086
  C      -2.41910726386641      1.85542965864961     -1.37809018759482
  N      -1.60049172466270      1.07188917734319     -1.15899734936947
  H      -4.39878893714633      2.37300328329744     -1.83731406460743
  H      -3.13724684316284      3.44388522348083     -2.53025928856045
  H      -3.52049330947482      3.52606988603078     -0.78115861791366
  N       0.96568483190327      1.07383404093503     -3.13254200650045
  O       0.63846934127538     -0.09554746978556     -2.82904189281358
  O       1.17117587756706      1.79621318555753     -2.13457425131115
