31
Coordinates from ORCA job orca
  Es     -0.47256833829488      0.58254877761686      0.63592666712836
  N       0.66264783174563      1.32475099285277      2.66807632037452
  C       2.13849311185051      1.16922788750688      2.54985275406371
  C       2.58029481139772      1.41101711587741      1.12293976238617
  N       1.93073926140414      0.42733167207722      0.21370031861948
  H       0.44650192710252      2.33077790429430      2.70948503363904
  H       0.35914920911923      0.96459478633946      3.57904064917907
  H       2.40194062865647      0.14745177434081      2.87049841582079
  H       2.66491852946500      1.86002381585501      3.22753505948139
  H       3.67827036700303      1.35222000114184      1.05294694069275
  H       2.29133262044580      2.42266925177992      0.78898162426295
  H       2.37140690556232     -0.49065185870416      0.34435227413378
  H       2.15615857661849      0.68347474444653     -0.75536778314848
  C      -0.64702351051357      2.68257054312568     -0.21989060243138
  N      -0.42989933269866      3.79293307101586     -0.50601521028365
  C      -3.39843043283161     -0.13649588384545      2.43477976903307
  O      -2.40592255307289     -0.45419875673221      1.42402187978176
  P      -2.83416388189133     -1.68046530312214      0.28468506191401
  O      -1.31660802167685     -1.30613622078968     -0.45195605200894
  C      -0.99682387182927     -2.03711724929300     -1.66480493858050
  O      -3.78143186411275     -0.81006901989732     -0.65477365328753
  C      -5.04266856220618     -1.27351753533621     -1.19992632263569
  H      -4.25090619110103      0.37615944326236      1.96723841346137
  H      -2.92494048050827      0.52615285221169      3.17071527369575
  H      -3.72086507640516     -1.06072845759968      2.93696614089814
  H      -1.15414585867500     -3.11335108552206     -1.49817260597090
  H       0.06280859798092     -1.86254570350762     -1.89144923785590
  H      -1.62205721713919     -1.67324607029262     -2.49239274856440
  H      -5.82558007883968     -0.58634114543593     -0.85671302498030
  H      -5.26273423201739     -2.29933048271733     -0.86761911239389
  H      -4.96679287453802     -1.23580986094918     -2.29356106642462
