26
Coordinates from ORCA job orca
  U       0.48562231813471     -0.55803244958663      0.14849804910584
  N       1.37907728120727      1.76350847014713      0.16785264405551
  C       0.38683025635907      2.81003138733860      0.51897279851383
  C      -0.96629519172538      2.44470418000335     -0.04745975433680
  N      -1.40526707108329      1.10954676254079      0.44468417043045
  C      -1.85442970608937      1.09702706012046      1.86680388413544
  C      -0.92850651989148      0.26288826517749      2.73142336868001
  N      -0.82262958129866     -1.10290914575127      2.17990119619968
  H       2.21670976890642      1.86459711127431      0.75223256327112
  H       1.71580336168188      1.92903537435453     -0.78975605455013
  H       0.69666860017105      3.79701925252728      0.13937712381969
  H       0.35036374713450      2.89895987144548      1.61693264303878
  H      -0.91989561065948      2.39347284986436     -1.14762119409981
  H      -1.71204650546389      3.21569007238236      0.21099797546515
  H      -2.20498355155286      0.84038361852055     -0.13684114660828
  H      -2.87922204889187      0.69330086506208      1.91766086623543
  H      -1.91173501287974      2.12417789887736      2.26134734099858
  H      -1.26961025071250      0.26336652535068      3.78010210530711
  H       0.09534603239380      0.69552914368905      2.75538513102673
  H      -1.74682745528120     -1.54646556636017      2.11813441634579
  H      -0.27532520231345     -1.70336236463132      2.80868823393008
  N       0.16703864958379     -0.83566141238797     -2.58904067253995
  O       0.06936741002766     -0.99105041616476     -3.73423238990396
  O      -0.06936567440212     -1.75005505890740     -1.69260385800163
  O       0.53148308361162      0.26964929537210     -2.01763585341828
  I       2.84232887303355     -1.46245159025848      1.40549641289956
