38
Coordinates from ORCA job orca
  Np      0.43654055418099     -0.13794152284239      0.17239713864272
  C      -0.63315069420375      0.54694431147888     -3.27169503275299
  C      -2.10324218566217      0.48557109939445     -2.91466071725102
  O      -2.92563623576214      0.01397740274568     -3.65457073681026
  O      -2.46748181254371      1.00422485572643     -1.73994720724206
  N       0.12354725161033     -0.37045791384875     -2.42961349745555
  H      -0.24557945188089      1.56807394094590     -3.12717601600928
  H      -0.56761679896015      0.29241839787217     -4.34231361174602
  H       1.10679940150389     -0.34089474554274     -2.69693800766121
  H      -0.18716174648585     -1.33363407439987     -2.56811757274838
  N      -1.96572831722887     -1.11375103626797      0.43805397830206
  H      -2.33232640396585     -0.87819119672680      1.36039609197822
  H      -1.76461939765391     -2.11594314914322      0.43565749944893
  H      -2.67277488193930     -0.90298551492085     -0.26739487080379
  C       0.86557129869642      3.44502505692393      2.51633791093754
  C       0.14868061006152      2.15656770352203      2.84752958197169
  O      -0.34281871232673      1.53034978352788      1.67256877087366
  H       1.25270158255358      3.91472899861442      3.43475619387335
  H       0.19075517179667      4.16334656820197      2.02086390659466
  H       1.71306792576628      3.23914264175079      1.84563731527133
  H      -0.70228022122444      2.32878907220312      3.53260783411351
  H       0.82421478603586      1.43149310926145      3.32173376808256
  H      -0.99150586156793      2.09919833248545      1.16385335686570
  N       1.02276663986375     -3.22146420627402     -1.13069559066798
  O       0.55790160843975     -4.28713379574811     -1.41964104656120
  O       0.19638887082857     -2.37360034133986     -0.61683239086153
  S       1.94381926591845      3.75530215972945     -2.79247473691022
  C       1.59243471067329      2.58446873573627     -1.74552601514836
  N       1.31503516051865      1.70174988024366     -1.00248426087539
  N       2.64669215421296     -0.96847253938654     -0.80025762913730
  H       3.22359746231944     -1.00154938594883      0.04274180244083
  H       3.11602886053022     -0.32664800551348     -1.43783936810606
  H       2.56592885431011     -1.91506199680930     -1.19201148002563
  C      -1.54238074647870      1.35747703216505     -0.68981642997535
  O      -1.97653778654867      2.29740085891269     -0.05829341609757
  I       0.17351945721394     -1.76683317517321      2.83687551300981
  C       3.34696996901478      0.83058793182492      1.94547329434487
  N       2.31177965838353      0.53352472661924      1.46701567809582
