22
Coordinates from ORCA job orca
  Fm     -0.43348293714977      0.64445380439284      0.16861465243354
  C      -0.48390573343296      2.02893616489771      2.14793715279487
  N      -0.43965833995661      2.40798070853146      3.25230210343749
  C      -1.58639603617516     -0.36421615650537     -4.37587562791436
  C      -1.51118287863367      0.06296842486060     -3.05091599074546
  N      -0.37446452227839     -0.04564097765319     -2.36131376547923
  C       0.67698464542703     -0.57229616471939     -2.98817626923716
  C       0.58055393592857     -0.99889519016384     -4.31272643990036
  N      -0.54616420338366     -0.89822257680526     -5.00926271407646
  H      -2.52577409432657     -0.26787834333580     -4.93102674408285
  H      -2.36769094725966      0.51045753790676     -2.53860116671226
  H       1.60969311727626     -0.63753516645186     -2.41981890013119
  H       1.45294901019425     -1.43176085735469     -4.81519125706075
  N       0.50316748525804     -0.71698164823747      2.09682168104393
  H       1.50161841134183     -0.87704233991579      1.96516707588069
  H       0.02909944089389     -1.60816675624143      2.23985998656650
  H       0.37464402056390     -0.13022885024757      2.92377649922919
  I      -2.35588407505989     -1.65227911137128      0.21037289288292
  C       2.97134750389472      0.33741077073941     -0.40398718947211
  N       1.81041894403407      0.50668424928208     -0.29287166069738
  C      -2.16259080659534      3.14258041255553     -1.47642045317231
  N      -1.52858194056088      2.36457206583651     -0.85796386558715
