19
Coordinates from ORCA job orca
  Cf     -0.32736988804616     -0.45243561896163     -0.19500852483150
  N      -1.79765535049184      1.92986835478584      0.36869971238613
  O      -2.39823163148298      2.93177978384888      0.59717439175662
  O      -1.19073919922727      1.72777619620943     -0.72961453836831
  O      -1.71069642617102      0.97601362409349      1.20385390878448
  C       1.18223180001768     -1.22507940365739      2.95106147896966
  O       0.18839703845639     -0.59628883221307      2.15840530777310
  H       0.74185017766968     -2.01278407596604      3.58334674896362
  H       1.70373016801675     -0.48854170452478      3.58247234968648
  H       1.90803333296508     -1.66837076629569      2.25731270299179
  H      -0.43216300907165     -0.07699951190529      2.68821347058169
  N       0.31267289148783      0.09803447386181     -2.55902076877948
  H       0.18577366513043      1.09000476479769     -2.76591911352558
  H      -0.18851150904424     -0.42506500475547     -3.27736132749931
  H       1.30603582146599     -0.12135222075912     -2.65726457254800
  O      -1.42667001883022     -2.08709971320560     -0.68695528929987
  H      -1.73117728236760     -2.96585936016149     -0.91050501348217
  C       3.07225246556537     -1.16783898256815     -0.39440780689009
  N       1.92743695395777     -0.92356200262339     -0.24688311666929
