13
Coordinates from ORCA job orca
  Am     -0.22240283786459      0.19423136850953     -0.35036665562253
  N       2.18606409908164     -1.40437630240467     -0.32893379276073
  O       3.17729050830531     -2.07613524619160     -0.34407640618997
  O       1.61029423201787     -1.06618004920571      0.74285472300348
  O       1.64222678327205     -0.98279342061961     -1.39725571255927
  S       0.69634274308669      4.68614425316021      1.88044454660100
  C       0.40454598441992      3.21517751844828      1.30690962710071
  N       0.18990653003918      2.12501840735431      0.88168842739616
  S      -4.41528933125060     -2.44481802183684      0.90970281586597
  C      -3.06008811206818     -1.63608784627830      0.61498652764099
  N      -2.05543410908534     -1.03773927051586      0.39476841298496
  O      -1.09343684875190      1.03199086625350     -2.02260475532735
  H      -1.77697152443698      1.45172841632950     -2.54496798155824
