28
Coordinates from ORCA job orca
  Am     -0.11626669618705     -0.38254845014815      0.77515881330131
  C       3.29687057494739      2.57086665457479      0.16400723935903
  C       2.92528674196984      1.13845075236747     -0.09332147576994
  O       1.96465012513867      0.65077317022320      0.90235894853045
  H       4.01317337859434      2.90055552522747     -0.60435948012553
  H       3.79486067640358      2.69199437412964      1.13948498237382
  H       2.42460374425572      3.24044476796276      0.12104494394178
  H       3.79556936350524      0.46501366511957     -0.06452282056361
  H       2.42188777257887      1.00584665415972     -1.06469288642761
  H       2.31488612422185      0.80008332423905      1.79801441528671
  C      -0.96303683777178      2.11692449837994     -0.16634472488930
  O      -1.30950602398765      3.13298224234493     -0.47992731855252
  C       1.67791995098763     -4.93009008360306     -0.32501909752231
  C       1.14762541007090     -3.61292901393675     -0.10108795980291
  N       0.72057461511174     -2.55059075398262      0.08347694200935
  H       2.77585377706258     -4.87764318315517     -0.40642317139330
  H       1.26294253267938     -5.34533002732369     -1.25772880131271
  H       1.40738509993737     -5.58430634447015      0.51992130302082
  C      -4.26590079816159     -2.25606845413383      0.41882717273447
  C      -3.49551026363467     -1.02720479305188      0.03155120432746
  O      -2.40392265039484     -0.76382872367183      0.97747114925183
  H      -5.07154277586247     -2.42152660956435     -0.31293321376206
  H      -4.74790143994596     -2.13778286090834      1.40296379243301
  H      -3.63028212155335     -3.15398709911392      0.43324959402046
  H      -4.12691467911751     -0.12551081185571      0.00558903710506
  H      -3.00476481018303     -1.13421394398317     -0.94922769015387
  H      -2.74688915555674     -0.79802581186792      1.88791765344870
  Cl     -0.05975163510839     -0.38004866395788      3.20855144913136
