24
Coordinates from ORCA job orca
  Cm     -0.47842297207881     -0.31340978517714      0.97938969060070
  C       2.79037052047070     -1.24462689757829      0.85972789809890
  C       1.70009916547574     -1.28156483551495      1.91701131853762
  O       0.82433352213966     -2.18372949455021      1.77458779933224
  O       1.47985953534670     -0.21778885913113      2.54071641757224
  N       2.01151668538837     -0.65306494623522     -0.25602631249852
  H       3.18241720473587     -2.24147138498224      0.61201762300274
  H       3.61014429144636     -0.57689771993721      1.15463308603507
  H       1.81337349971608     -1.34798678772067     -0.97455281638367
  H       2.51551247593564      0.11171846743130     -0.70013720973486
  N      -2.20669307423387      0.90335986199921      1.99921785491442
  N      -2.26601668980875      2.05380419178291      1.69649261329335
  N      -2.26783933457016      3.15982332738960      1.35878917748714
  C      -0.08251196439535      2.11808394932102     -1.45941440298075
  O      -0.18418900014338      1.89976890538835     -0.06406573577659
  H       0.51315135098129      3.02078185714660     -1.67265468908713
  H      -1.07786240105910      2.21934517029480     -1.92113323370382
  H       0.42013119643250      1.24797435954321     -1.90419896525475
  H      -0.73969406540374      2.61234098205515      0.33540194804143
  C      -1.82460161886664     -1.84777039720737     -1.79998346703980
  O      -1.28678476081050     -1.18943546849085     -0.71441283635002
  H      -2.02728934305541     -2.91338528848285     -1.57786036500591
  H      -1.14464353458620     -1.82521047161649     -2.67644057092400
  H      -2.78186068905700     -1.39395873572753     -2.12340482217606
