20
Coordinates from ORCA job orca
  Am     -0.19062227589397      0.86551482624627      0.59332048671220
  C       2.56473190438576     -0.99246861801742      0.97376607876317
  C       1.65451272259994     -0.16513172476567      1.83842602366012
  O       1.76215144524062      1.09221039886384      1.79223548735047
  O       0.48734338539730     -0.63054566433226      2.07349852986964
  N       1.86169687817697     -0.68941438904452     -0.31661168206102
  H       2.52952240695403     -2.06182368598396      1.21809521998040
  H       3.60018339887450     -0.62902881623314      0.97617283032308
  H       1.57036091638999     -1.56101455763899     -0.76830149071242
  H       2.51314808095481     -0.24695184674522     -0.97113209972865
  C      -4.98814387468033     -0.31377795282987     -0.33232427577367
  C      -3.61715638249940      0.05020320357791     -0.10959932610242
  N      -2.50891571595957      0.34541236242603      0.07044281698548
  H      -5.62368005751431      0.58574883744769     -0.28015585496504
  H      -5.30889409070548     -1.03306056805561      0.43960784601709
  H      -5.09110747996518     -0.77638491608128     -1.32795733225623
  N      -0.02023982345632      3.25004040147676      1.31471257589382
  H       0.90407427360959      3.63745444682051      1.08771136892070
  H      -0.05281460378731      3.29967083219541      2.34107836939166
  H      -0.69725110812151      3.94924743067353      0.98851442773153
