17
Coordinates from ORCA job orca
  Pa     -0.23469588960608      0.96066142577119      0.69438420724670
  Br     -0.25819750466191      1.68145758937849      3.06666692018396
  C       3.15932042441109      0.92172725011153     -0.10357300685467
  O       1.78083249458067      0.20752088523132      0.34558507452980
  H       3.41153378520725      0.42753343742052     -1.05729448295271
  H       3.84874070838942      0.70315456833207      0.73006240784599
  H       2.91406326063619      1.99019600425152     -0.20330189414759
  H       2.04755170911724     -0.74412169551916      0.47462996014925
  O      -0.79426315193648      3.04728740409404     -0.08205347226949
  H      -1.03144502844662      3.84436554219869      0.46863990193789
  H      -0.88787616260094      3.38309160110772     -1.01703880338385
  C      -2.38685453385261     -1.62550364113909     -0.37189408767164
  O      -1.77423060742432     -0.56635785006973      0.72384798277455
  H      -3.44563176046021     -1.32280009974362     -0.44022332215316
  H      -2.20563321325800     -2.60594728890500      0.09942926913203
  H      -1.80820389201553     -1.44861083189017     -1.29096288223176
  H      -2.32571063807916     -0.74355430063033      1.53509622786468
