20
Coordinates from ORCA job orca
  Lr      0.31504154636967      1.08295371732842      0.72977855237881
  C      -0.29672480077423      1.16229489261264      4.04371854000713
  N      -0.06267994301432      1.14748571222090      2.88494087990876
  S       3.09263027932656      0.49644553292958      0.37541908168461
  C       1.95976005702381     -0.42085617024141     -0.37328734893758
  N       0.91943214282199     -0.85271650706978     -0.74423290024542
  C      -4.50636030122521     -0.52679640267288     -0.03889047981109
  C      -3.50002704836140     -1.11649763631992     -0.79961567618281
  C      -2.18309173191071     -0.72685006016674     -0.59007412080995
  N      -1.85545247981328      0.19997339351094      0.32350199866891
  C      -2.82364052605346      0.76697327474060      1.06109653797422
  C      -4.16211091415934      0.43251166535699      0.91044550832993
  H      -5.55125121372845     -0.81471749240894     -0.18167633029348
  H      -3.72477843323307     -1.87576636346373     -1.55114846579402
  H      -1.35024590363673     -1.16140382004717     -1.15014752968742
  H      -2.50663931270131      1.50250887943965      1.80846512396283
  H      -4.91497111411217      0.91810538799260      1.53398066623429
  S      -0.59665185427936      5.46752277996182     -1.31637067920813
  C      -0.29849696707679      4.07002945056029     -0.64008309398941
  N      -0.07721817833878      3.00660749766066     -0.12984010049382
