27
Coordinates from ORCA job orca
  Am      0.10022753284277      0.91870606594056      0.47806571535735
  O       2.21571949151097      1.46615219025151      0.88938182850271
  S       2.87399994061751      0.36014729712551     -0.07474760777620
  O       1.52950129013825      0.07112761042737     -0.94635834540375
  O       3.05180258536800     -0.86585444922184      0.78246130465305
  C      -6.84146758923052      0.63736656309643      0.92231983284032
  C      -6.67811309747226     -0.04675289449539     -0.28293979492025
  C      -5.40152315267433     -0.38000087233594     -0.71996424549366
  C      -4.28483591004724     -0.03826589479730      0.05625333964073
  C      -4.45468738764624      0.62462206342184      1.27827085112140
  C      -5.73287279738111      0.97319595927338      1.69948512505841
  C      -2.91238146235466     -0.36051263263757     -0.38195275943015
  O      -1.97180679932363     -0.45174245488802      0.39420137695853
  O      -2.68908363376393     -0.54489774252952     -1.67038805454295
  H      -7.84519039623603      0.90939256732648      1.25911939848171
  H      -7.54907112320445     -0.32403382158518     -0.88133971295867
  H      -5.28817224316521     -0.94320111535385     -1.65273573249909
  H      -3.57719718084706      0.88690262649416      1.87574650537445
  H      -5.86351405290390      1.51573027861135      2.63853305442932
  H      -3.46501246506245     -0.29743013019098     -2.19309387679035
  O       0.71702533239985     -0.99440958006669      1.78146709642976
  H       1.70615425109140     -1.08797708683470      1.50973525025957
  H       0.30770151686684     -1.85887109869574      1.66179422859735
  N      -2.08421138322142      2.80707210672264      0.67308679822912
  O      -1.46389644936993      2.34878757348819      1.68635817861616
  O      -1.62519439851150      2.45077274889580     -0.45248424754323
  O      -3.04600041841911      3.50567412255740      0.78282449280825
