25
Coordinates from ORCA job orca
  Es      0.16072948730303     -0.59511857228783      0.83964020464698
  Cl      0.57796867596376      1.20991677550191      2.68494283729790
  C       1.46295304160141     -0.21347519003872     -2.26172665121317
  O       1.22244144594880     -0.44083716922308     -0.93927771654532
  H       1.30923897933882     -1.11995298763759     -2.88991079992800
  H       2.50696071352141      0.12191461425228     -2.45539122102418
  H       0.80361743037218      0.57534737662277     -2.69471809321163
  O      -1.86714475339917     -1.11551376622880      0.48487570638050
  H      -2.20272776637597     -2.00520097125618      0.63105991173607
  C      -0.90097591870327      3.47428293947180     -0.06029324674910
  P      -1.48732605147194      1.73765917716725      0.07218491374336
  C      -2.57598818953627      1.53496983801314     -1.39267129581975
  C      -2.71932285554948      1.85410392783647      1.42404876650639
  H      -1.72576199494719      4.20403226089582     -0.12966092733435
  H      -0.24760678820065      3.57718424269203     -0.94108263581423
  H      -0.29681396813382      3.67689842626020      0.83829397430122
  H      -3.37781001235896      2.29121297262016     -1.44813938200352
  H      -3.00790958087595      0.52596459760222     -1.29961250644314
  H      -1.97398552807388      1.56856441072407     -2.31451671002430
  H      -3.47847739347667      2.63526822813360      1.24747245953444
  H      -2.17077391413174      2.04821107155509      2.35881012888775
  H      -3.18870034627040      0.86092517039013      1.49735685792761
  S       1.50955559769366     -5.12371866657473      2.84402118661571
  C       1.10255160841053     -3.70493713949230      2.19211393935357
  N       0.79974130356189     -2.66362417078718      1.71131481830526
