34
Coordinates from ORCA job orca
  Fm     -0.14856078233222     -0.25781421978143      0.67379043722682
  N       0.32957899541429     -2.44719537273253     -0.30749694276027
  C       1.78047715523180     -2.60870930649471     -0.61753609735220
  C       2.32369675041943     -1.31782313222348     -1.18166349952035
  N       2.10292681745736     -0.20902681585028     -0.20198463478229
  H       0.01834129984574     -3.26352201234006      0.23495853855743
  H      -0.19834552337727     -2.54185489508560     -1.18629876012672
  H       1.94607172253088     -3.43657262944018     -1.32610538838454
  H       2.30613615404631     -2.88480525692616      0.31245928846375
  H       1.81464286056027     -1.05074649308642     -2.12414869790144
  H       3.39406171188061     -1.42063442326672     -1.42312990915364
  H       2.37455700998230      0.67609496962534     -0.65063819092322
  H       2.80020687982844     -0.30907263359182      0.54964752099421
  N       0.18268338425049      2.00960872980919      1.60914651961329
  H       0.44427681427212      2.72628920405088      0.91785709285065
  H       0.90455705825599      2.10178368303290      2.33764809154168
  H      -0.65933404187469      2.40519643599813      2.05063776812976
  N      -0.67709919151010     -1.13862449335414      2.89802931973818
  H      -1.09039280479977     -0.45878041269416      3.55218717239121
  H       0.12420933318837     -1.51845757512242      3.42294268893215
  H      -1.35673266834514     -1.91346950633995      2.90318619138156
  C      -3.20882734805643      0.17452557583506     -0.30080466543803
  C      -3.93620446462291      1.14249904087585     -1.20101748393078
  C      -3.12083070457279      1.07045858198127     -2.48719343720818
  C      -1.69499100860837      1.06294151130175     -1.98799052590875
  O      -1.76870550742622      0.34159577296233     -0.67547992579229
  H      -3.47306096487677     -0.87506696343855     -0.50559524333625
  H      -3.30177307379338      0.39295038883295      0.77673921987631
  H      -3.93481838191998      2.15872482647791     -0.77500963692366
  H      -4.98578789862744      0.84328087802802     -1.34346731175798
  H      -3.30490197517380      1.92411647962341     -3.15694338099247
  H      -3.34478956335297      0.15162079046746     -3.05210662578063
  H      -1.31695901231273      2.07463294968839     -1.77041526283897
  H      -0.98820903158130      0.51395632317782     -2.62860422888424
