25
Coordinates from ORCA job orca
  Pu     -1.47746430471103     -0.28457758193208     -0.29626790281422
  N       0.27777005188424     -1.08419212036439      1.25062580874470
  C       1.13344264400914     -0.18945629790074      2.13404030764922
  C       2.61010444224629     -0.10723531277108      1.77404364502597
  N       3.08309741479545      0.61566008157404      0.62137203173927
  C       2.61597461143296      1.77411934079879     -0.09600894170318
  C       1.14233084662953      2.14701941229024     -0.17274008582380
  N       0.27663263192013      1.27795477250640     -1.07226785098035
  H      -0.21373110319581     -1.71959279847473      1.90618114597737
  H       0.90028797164020     -1.75408272533590      0.76633375372334
  H       1.11860315300428     -0.61651714399427      3.15144710906804
  H       0.66388751529301      0.80043443531083      2.23019395226775
  H       3.08641889205331     -1.10923318288356      1.74252696509087
  H       3.13155404073370      0.36610098787271      2.64908159515894
  H       4.07689960913705      0.40558351444484      0.41288676507550
  H       3.09001240764661      1.74319831488166     -1.09920734603230
  H       3.14568859206135      2.64324456072425      0.37908712998943
  H       1.13614446101147      3.16719593073079     -0.59349124905997
  H       0.67489985631956      2.24181169502949      0.81825651282012
  H       0.89253604454813      0.80819625467965     -1.75852190617575
  H      -0.22218145197786      1.94558648343416     -1.68912211068378
  N      -3.35478416124861      0.80757485595971      0.80948076328231
  H      -3.16956367506885      1.46719718533907      1.58740791752468
  H      -4.03468107313964      0.14335434478144      1.23070298072601
  H      -3.95697941702462      1.36705499329865      0.17335900940982
