29
Coordinates from ORCA job orca
  Lr     -0.70400106873385     -0.20272710423099     -0.31971639371981
  N       0.64150118990975      0.05899112615566      1.79048497053097
  H       0.60787634858699     -0.92958020991859      2.11275999093177
  H       0.43531907690015      0.67941564957061      2.56909764813373
  H       1.56983781666497      0.27108420429110      1.42220833999726
  C       2.86788148998870     -0.80546416631863     -5.62104631960183
  C       4.00495486104088     -0.49360980513388     -4.87204237421575
  C       3.87013139724624     -0.11089341674776     -3.53900930309580
  C       2.60852780598074     -0.02981531952365     -2.94275232273026
  C       1.46852162797198     -0.33920412076609     -3.69392458181294
  C       1.60640913042107     -0.72804339021762     -5.02785846173111
  C       2.50845585337803      0.39773101866365     -1.48066213976214
  O       3.55661290330686      0.62024240261020     -0.87212836138268
  O       1.32982326152719      0.50491870907580     -1.03159510320161
  H       2.96668637236754     -1.11313514000705     -6.66824789282247
  H       4.99829975793591     -0.55451628674211     -5.33139980173225
  H       4.72791375155991      0.13719805434862     -2.90675428940510
  H       0.47373375441977     -0.27456664396635     -3.22727807448912
  H       0.71181890600299     -0.97865044577510     -5.60763057995298
  O      -1.79448202640296     -1.76471569909673      0.92201426641951
  S      -0.66724573681859     -2.88403465078882      0.88493910004830
  O       0.23115154105098     -2.25677223424191     -0.26962825553372
  O       0.12594635020081     -2.75822374953186      2.17155070520774
  O      -1.57029097598344     -0.03713071537270     -2.28652730731889
  H      -1.50896416760922      0.85502447904310     -2.64346311980315
  N      -1.95127494387501      2.33471361635331      0.44590762088207
  O      -0.87074305658871      2.32643122888188     -0.19087994389110
  O      -2.43355850272836      1.21745011625833      0.75885872970569
  O      -2.50594271772138      3.37438249312761      0.75112325434578
