23
Coordinates from ORCA job orca
  No      0.46094938465124      0.92144758073083      0.73387396030248
  O       2.36602188243967      0.59384778633444     -0.79201548714264
  S       1.29976780164668      0.01557776139703     -1.76985077353998
  O       0.25241100736582      1.18194455006189     -1.87488648488286
  O       0.54813847817024     -1.04081149600942     -0.90752455842910
  N       0.49678506970951     -0.39541447458350      3.48190693029804
  O      -0.56879804818782      0.09431665521744      3.03401245317335
  O       1.52411632160512     -0.29899885260526      2.77854890267390
  O       0.52210319734564     -0.94736981439857      4.57343878454830
  N       0.05565943607740      3.77103659964098      1.69060040894993
  O       1.16714487822101      3.20842793711465      1.73049938577622
  O      -0.86930123202470      3.08964309996219      1.20956612899937
  C      -4.50636320467282     -0.81394402517143     -0.54306126128215
  C      -4.17542662057063     -0.76820273677499      0.80976379257772
  C      -2.91487592858729     -0.28598811786799      1.16876865899878
  N      -2.02367679348202      0.12382017214711      0.27077787153033
  C      -2.32268340123579      0.07211760269278     -1.03069809198554
  C      -3.56529055280416     -0.38618146278641     -1.47655812307676
  H      -5.48649363079060     -1.18444982669685     -0.86516522381363
  H      -4.87691456750807     -1.10049286171646      1.58074688791984
  H      -2.58393530860825     -0.23699818661775      2.21362448531705
  H      -1.50521057751367      0.41682073638288     -1.69572344812275
  H      -3.77952759124641     -0.41004862645359     -2.54924519878994
