23
Coordinates from ORCA job orca
  Cf     -0.29095999397494      0.34695292747922      0.15497142670278
  C       4.45318755969203      0.30742392851534     -0.41961523244235
  C       3.10881153626730      0.45914143355971     -0.62789949522132
  N       2.18638913634542     -0.40984578952107      0.03405711158277
  C       2.75084609881658     -0.82493636478059      1.28141999210872
  C       4.10992228013698     -0.92755762088364      1.41030045929172
  N       5.03214305678593     -0.46004654162761      0.53594591000551
  H       5.13306457721253      0.93005216327541     -1.02867312597971
  H       2.68577201573738      1.20606771121617     -1.30623362299729
  H       2.03644058142071     -1.09714747019619      2.06217092452213
  H       4.49812851004287     -1.35824160060641      2.35197022177205
  S      -3.28507139216236      0.33666592197287      0.03885177585285
  C      -4.17796373132930     -0.42580394792316      1.22120212699108
  N      -4.88503397045481     -0.92877452599444      2.01631817233186
  O       0.68720362958208      3.83999068820971     -1.50242289033794
  S      -0.45123938642412      3.16453272484137     -0.80527097256222
  O       0.08803193709935      2.53408693029455      0.57000638436956
  O      -0.76016338013856      1.78800270130704     -1.55860486761468
  O       0.19569382955304     -1.55912221825557     -1.11114643937714
  S       1.69612280997938     -1.87844739408731     -1.03089177461887
  O       2.33532168697674     -1.77631506381225     -2.35370121172104
  O       1.94158970169183     -3.12111747196796     -0.27978980138357
  F      -0.33063709285618     -0.41706112101520      2.10553492872510
