34
Coordinates from ORCA job orca
  Np      0.14813104648780     -0.16907163574671      0.69455602654615
  C      -3.59568039211221     -2.43089801147561      0.98431067476693
  C      -3.10046052232794     -1.08507293572492      0.48762995906621
  O      -1.72101190246732     -1.01199939148218      0.53395077840771
  H      -4.69406504575500     -2.50104225065051      0.89709713635360
  H      -3.32553089183344     -2.55278171891640      2.04424676812447
  H      -3.13881367365787     -3.24766914402203      0.40202903369798
  H      -3.54510441264091     -0.28812169575259      1.11565084710394
  H      -3.44251189792470     -0.91840050233873     -0.55604921109124
  S      -0.37674992372380     -0.21138044860522      3.49273221200126
  C      -2.03491810866574     -0.35004345502431      3.65265370151333
  N      -3.19243275317238     -0.44235005401198      3.81725328004757
  F       3.43919968161260      2.63526813860258      4.26014165171080
  P       2.73348347591442      1.60070354870301      3.14524408311705
  F       4.19473476079810      1.36812159363537      2.44358413225334
  F       2.85610406605794      0.37650069084247      4.20774057410526
  S       2.42995183934777     -4.85236096812578      0.46810682678176
  C       1.69232177970441     -3.41512244579743      0.55076841638567
  N       1.16259409779507     -2.35692766263304      0.61156251680859
  O       2.10889248129536      0.08680104451904      1.87477625870855
  H       2.46743916917152     -0.76516102048807      2.16281969614459
  F      -0.63601973570385      1.74678503560731      0.59216447999160
  S       0.40394169813576     -0.74872564675692     -4.55262729852251
  C       0.25061722551578     -0.55310214353359     -2.95102506571930
  N       0.16437956443947     -0.38889403579331     -1.78092632940920
  C       3.58855000852690     -0.34411854440962     -1.40579979952065
  C       3.31000755407110      1.00125702311340     -0.76812457217463
  O       1.92888218783415      1.28745945355937     -0.66156072033187
  H       4.67533667143249     -0.52836945067487     -1.44286623282131
  H       3.19737790087816     -0.40039896703627     -2.43662310811604
  H       3.12181185674642     -1.15618092138410     -0.82516574049586
  H       3.80531047087344      1.80914779173481     -1.34555958171419
  H       3.70147251375236      1.03174967729427      0.25770847517887
  H       1.48955920959385      1.06899905277283     -1.50069986889870
