37
Coordinates from ORCA job orca
  Pu      0.34700254035993     -0.00759999799610     -0.18803920365479
  N       0.56025993154481     -1.84932382877227      1.57088917077907
  C      -0.66086566989139     -2.15380543666138      2.28756420018005
  C      -1.32447474440157     -0.86337229848304      2.73697613983860
  N      -1.64069624647310      0.00689902683363      1.62309860430819
  C      -2.99433476140625     -0.02999463180280      1.07899611770305
  C      -3.02810610105674     -0.63713046259548     -0.31228408921879
  N      -2.04028638675206      0.04076354598377     -1.12945770180856
  H       0.88252230735893     -2.63053745259026      0.99670501840660
  H       1.31489386725349     -1.50566998656896      2.16320815058651
  H      -0.50111007346788     -2.81769810757847      3.16536695024012
  H      -1.31247943687371     -2.69216670588788      1.57709610104363
  H      -0.61839159504277     -0.32155548135301      3.39089918492229
  H      -2.22323956603205     -1.09861753905834      3.34756454846061
  H      -1.44114620820045      0.99908646271418      1.87421909553501
  H      -3.33447776146724      1.01716807740841      0.99818283817892
  H      -3.68742637739256     -0.57320868685058      1.75365860974630
  H      -4.05960382381839     -0.55095750727630     -0.71831919947861
  H      -2.76353807718231     -1.70848716869041     -0.28638705907457
  H      -2.26756180852311      1.05149010867958     -1.21637340604052
  H      -1.91723571789657     -0.40081163168372     -2.03924947060092
  S       0.51898850534788      0.54631457832742     -5.42256789378254
  C       0.41277799803423      0.35978396887307     -3.81095479609999
  N       0.33786168297494      0.23121365238627     -2.63810248144574
  Br     -0.51921381055725     -2.83496042329931     -1.17572335213650
  C       2.65036163980223     -1.14815195875858     -0.24939562316332
  N       3.72825934107761     -1.58233503037351     -0.10957046782500
  N       1.97109519866856      1.72506844904283     -0.96665603235227
  H       2.28290924584350      1.62887379291580     -1.92934808830505
  H       2.76591109469371      1.71563717366229     -0.33197555700917
  H       1.41679100298931      2.60107477140476     -0.83564468510294
  O       0.02567718551670      3.64705658498407     -0.37804915442752
  S      -0.91934232816053      2.57916198068764      0.13807853121899
  O      -2.30641113924730      2.72800167313517     -0.47268314567504
  O      -1.04468716642883      2.72029747256591      1.68075101883389
  O       0.98983526947010      0.97347361356520      1.54251364219282
  H       0.46288198933645      1.74411940311041      1.86271348502706
