27
Coordinates from ORCA job orca
  Th     -0.24102602596994      0.38113007094086      0.51184381491100
  C       2.92517205462010      2.90710380216283      0.16353672042980
  C       3.01237813916652      1.40408979348922     -0.02796490328119
  O       1.85479134877924      0.76280812055573      0.39028345292071
  H       3.83428084954511      3.40462744220688     -0.21575267824259
  H       2.81762548772194      3.15250858617208      1.23303472149191
  H       2.04542513921208      3.31735124637278     -0.36116036460449
  H       3.88462410153832      0.99973835734863      0.52683666275694
  H       3.19566216360045      1.17909158406918     -1.09892242824977
  Cl     -0.65000980125143     -0.53311750371834      3.03154230029738
  O      -1.07848322334509      2.45186460459603      0.89971649068519
  S      -1.31268593322783      2.97440583602049     -0.62485188532815
  O      -0.28124410567728      3.99147729155529     -0.91546487851437
  O      -0.84695364638784      1.57995692906749     -1.32457322442606
  C      -5.63692757816090     -0.39878484802522      0.00396515323734
  C      -4.79501544496777     -0.36022609869145     -1.10427679255781
  C      -3.42827500332823     -0.19450173667952     -0.89880978864472
  N      -2.90102961182536     -0.07853219077829      0.32254693420733
  C      -3.70310430030955     -0.12050397090174      1.38881664868512
  C      -5.08208242420271     -0.27653823317469      1.27516738904824
  H      -6.71641248215085     -0.52431982876315     -0.12215782648555
  H      -5.18409685931411     -0.45562690512214     -2.12031654442102
  H      -2.72089235827498     -0.14248663060863     -1.73222727414633
  H      -3.20511819731332     -0.03736058159301      2.36143245357292
  H      -5.70277311625352     -0.30300315890661      2.17359764512044
  C      -0.55722654529802     -2.67156440896710     -1.42989644599075
  N      -0.42740262692494     -1.67308756862774     -0.81564535247149
