31
Coordinates from ORCA job orca
  Lr      0.37667507484771     -0.37524692961358     -0.43238570035110
  C      -1.52138644431493      1.64797625405916     -2.38136401317923
  O      -1.19166540607818      0.30319181696031     -2.02561066136303
  H      -1.89427187174898      2.19090037701959     -1.49986193280182
  H      -2.25563743325801      1.64117323764660     -3.20169011234280
  H      -0.59608204963073      2.12881372819641     -2.71985810414147
  H      -1.98050842384499     -0.16587747278085     -1.70871381603755
  I       0.57814081596661     -3.23459918448159     -1.35512003959911
  C      -3.97765795731101     -1.63242888742625      1.03811380996102
  C      -2.57903382975142     -1.09269293605721      1.19514141285547
  O      -1.79861128330999     -1.33927671109345      0.00969164021522
  H      -4.56643530358090     -1.41617700400756      1.94284869739243
  H      -3.98056487539409     -2.72575245218376      0.89367175834918
  H      -4.48948718655577     -1.16778742506549      0.18090666659264
  H      -2.05952748913711     -1.53756572792921      2.06015269211109
  H      -2.55649194521205     -0.00076944747670      1.32594365300146
  H      -1.69041599228261     -2.29408322002174     -0.15761689504954
  O       0.62300562826876      1.79679207572275     -0.30741395674521
  S      -0.09985816457422      1.89463089756627      1.14321806985611
  O       0.12046153254600      0.33165042058771      1.55720727274661
  O      -1.55855502348447      2.02386657109209      0.85593336315039
  C       5.04876103460842     -1.22384828365728     -0.25384394608442
  C       3.67027811730796     -1.36613979577270     -0.40480984487743
  N       2.86570142212885     -0.29734827633777     -0.37718356326441
  C       3.43519181106272      0.90344919033639     -0.20433088921977
  C       4.81722559683349      1.01848999422347     -0.06236755358094
  N       5.62269286177839     -0.03781914534802     -0.08409076156578
  H       5.69811165878865     -2.10561226252096     -0.27421514372166
  H       3.19812637544533     -2.34260947432298     -0.55758679427673
  H       2.75294089483766      1.76101472072398     -0.18141309668433
  H       5.27487785504892      2.00428535196238      0.07394778865474
