20
Coordinates from ORCA job orca
  Lr      0.67695279563049      0.25891081252134     -0.95861483501061
  C       0.07733254150000      2.08113858748699      2.70500191580866
  C       0.03218057909401      0.64614287202224      2.22138983477941
  O      -0.69804506344489      0.52565927933263      1.01431104476492
  H       0.69166160205515      2.16036477996456      3.62037883796367
  H      -0.95063024078454      2.41030961683765      2.93156157609088
  H       0.50456892434417      2.72843076686542      1.92171694860445
  H      -0.43057232393457     -0.00796471423999      2.98195653497977
  H       1.04671261018409      0.25696189632079      2.01909286964312
  H      -1.65809317628466      0.63537249295501      1.23838667365705
  S       5.57825842358004      0.94466523424252      0.74408202408403
  C       4.04980592258797      0.69589317003788      0.21281730743916
  N       2.94932182423780      0.51799012581888     -0.17033342987346
  Br     -3.49278505188895      0.93218673095009      2.72618613483975
  O       1.11875594708542     -0.00609849120339     -3.08711121302960
  S      -0.38723420469279      0.06650249801747     -3.66094112407767
  O      -1.11853460946717      0.03483271325297     -2.23515777791925
  O      -0.67954926229876     -1.20202706943001     -4.38908360407940
  Br      0.71195899689570      3.05094543233276     -1.00162416739088
  I       1.06043376560146     -2.62601673408586      0.13988444872596
