21
Coordinates from ORCA job orca
  Lr     -0.35851784233259      0.15535302437940      0.62828712766956
  C       2.12917476497713      1.20131043080317      3.42828210557082
  C       1.19047690549868      0.22153985831964      2.81036414792286
  C       1.56105894813360     -0.83522314597522      1.91850498632219
  C       2.20693526166718     -0.56978869799706      0.67206696521034
  O       1.50321606949476     -0.81996058940509     -0.35569396219674
  C       3.51177015409898      0.13275153221920      0.51081273217277
  O      -0.05991904488603      0.40375734537012      2.92112966604987
  H       3.14113758747989      0.79836806340827      3.55977281536572
  H       1.71299892766862      1.51485885597336      4.39696779654684
  H       2.17131756831634      2.10384267428436      2.79446272287362
  H       0.76925789992536     -1.59926446149657      1.82556809045756
  H       4.11956478355055      0.12076867566237      1.42378499418624
  H       3.32471750230455      1.17392526204532      0.19792960556660
  H       4.06014537210049     -0.34989882312273     -0.31246240202669
  S      -4.71277719009872     -1.73748914557455     -0.77129165790233
  C      -3.32362312862991     -1.12777495477270     -0.32111116354129
  N      -2.26984818003833     -0.66836531526795      0.02162292646819
  N       0.13692225615194      2.16202557815322      0.13751846045148
  N       0.24484912378792      3.31201653411250     -0.19332067306971
  N       0.36484226082956      4.40194729888091     -0.49769528409799
