20
Coordinates from ORCA job orca
  Pu     -0.05662180498845      1.11030831494041      0.55071659940959
  S       3.89134404945156     -0.85105285018609     -2.15700412981664
  C       2.62722404764624     -0.22773627220633     -1.37252423061067
  N       1.69781391357294      0.22717921669922     -0.79402259744644
  C      -4.70041706084882     -0.90910611152922     -0.35217042161373
  C      -4.00388376565162     -0.29909352064498     -1.39804898325195
  C      -2.76055214928686      0.25028563957252     -1.13339198089100
  N      -2.20692129950978      0.21378821009742      0.09781100305752
  C      -2.88213361074552     -0.37539399702713      1.10974080511752
  C      -4.13062175667267     -0.94716994947576      0.92094226064237
  H      -5.68393020027117     -1.35346360951856     -0.53039704925224
  H      -4.41959087196170     -0.25021192149897     -2.40706904454712
  H      -2.18655071331952      0.73598331829599     -1.93319934885838
  H      -2.39917031227213     -0.38941173586305      2.09425637766036
  H      -4.64515527253825     -1.41656789281061      1.76255008371715
  C       0.39235201425254      1.35908189137995      3.32360550453706
  N       0.26993631241812      0.40645317677063      2.62233226563013
  O       0.06601710819802      3.29762382941079      1.41770847859986
  H       0.23014496556455      3.26484470986572      2.39089861681728
  H       0.02381640696261      4.22875955372800      1.14286579109931
