38
Coordinates from ORCA job orca
  Pa     -0.65229097351742      0.13766171107604      0.41170169862620
  C       0.42175179538748      3.41003180872043      1.54564292607054
  O       0.27390971124510      2.40521619334703      0.53184109112634
  H       1.29603190259693      4.03662815233457      1.31763958697842
  H       0.58224114632711      2.88126210016536      2.49116746148533
  H      -0.48730890857784      4.02653698382533      1.60552112012724
  H       0.21844971330081      2.80723713122706     -0.34624578775970
  S      -1.05087491706956     -1.79863068498857      2.74091433805799
  C      -0.13110890091764     -0.47984394515793      2.90697565853560
  N       0.43487927915917      0.52772943882106      2.61284792636582
  N      -3.79541477458191      1.12004710208340      1.56234255904469
  O      -4.14825233035519      2.20243704992352      1.51362042078523
  O      -2.42000854461885      0.96459400142463      1.01018731367939
  C       2.64433735561934     -3.74778219991696      2.74025842917546
  O       2.27685654305869     -2.64623548726478      1.91620934153982
  P       1.39215108744901     -2.88871393951699      0.57746321933045
  O       1.32640594245454     -1.17232787007457      0.24316672148173
  C       2.55496940360219     -0.41105608130792      0.24538699999416
  O       2.58843665295899     -3.28903281669858     -0.44878448565077
  C       2.30506940862922     -4.02618802416660     -1.63445900041407
  H       3.36687910835876     -4.39814169045198      2.22285444492305
  H       1.76049629178767     -4.33489008193096      3.04115676883608
  H       3.11661441776907     -3.33002445233419      3.63829356078796
  H       2.32072107453121      0.59454287408382     -0.13650444409072
  H       3.27672980864507     -0.90229040130004     -0.42196379054415
  H       2.94698341324410     -0.35097845874493      1.26849191874317
  H       2.35435173005051     -3.36031420457208     -2.50922020729449
  H       1.30693288909229     -4.49417542463426     -1.59226837627910
  H       3.06687579664925     -4.81084630074161     -1.73623354738569
  C       0.34334739406727     -0.70798453268335     -3.28682993399073
  C      -0.17918753316650      0.65354920126478     -2.89126434937247
  O      -0.29681863824738      0.75755157822669     -1.48227559371519
  H       0.42489743720160     -0.77681956234483     -4.38216046487827
  H      -0.33723420718863     -1.50127202532352     -2.94060799408930
  H       1.34313116971984     -0.88422598358594     -2.85805282534689
  H      -1.17377079901523      0.84175514596356     -3.32887519347799
  H       0.49477000710490      1.45613938579012     -3.23725673396721
  F      -1.58014995275433     -1.45724569053646     -0.44668077743798
