17
Coordinates from ORCA job orca
  Np     -0.20457127399708      1.17236518707482      0.12027012605364
  F      -0.25193725369567      0.72559943663895      2.02661940647242
  C       3.20817471102997      0.55124053473770     -0.35592621396040
  O       2.03742938481276      0.63614292222760      0.51166253883678
  H       3.61615413905573     -0.46771022015372     -0.31311081281534
  H       3.95233626181072      1.29125624192449     -0.03201333102238
  H       2.87840622813097      0.77878673933812     -1.37899999910792
  H       2.29639673475103      0.44799254663912      1.43225929647340
  N      -0.52596138046411      3.18307537763205      0.14878425045327
  N      -0.70122221676710      4.39202506740542      0.32711150536149
  N      -0.86372891295073      5.48989439115378      0.48189427527902
  C      -4.90933705149448     -0.39654605640479     -0.09251902642560
  C      -3.55752230389419      0.07668354825343     -0.10598668811371
  N      -2.46043108617318      0.45896136001971     -0.11541523335951
  H      -5.54825982237088      0.33213164700407      0.43499749158212
  H      -4.95349776764193     -1.36751499289540      0.42988429773707
  H      -5.26942839014182     -0.51928373059545     -1.12811188344441
