29
Coordinates from ORCA job orca
  Pa     -0.57397626492334      1.74244911011834     -0.06255967819728
  O      -0.63912983715201      1.97910497488555     -1.85113637221136
  S       1.45393579342739     -0.91442531138896     -1.62812376891302
  O       0.61544077331265     -0.34408500536710     -0.50856586010586
  O       1.82017538650524     -2.30323094589663     -1.38278037152651
  S       3.69746351731172      0.51191372474033     -1.12415785091422
  C       2.66761609885436      1.55805445219201     -0.42168232205689
  N       1.81350618331419      2.21329126179859      0.05878090237367
  O      -0.57251128741984      1.28013490988583      1.90316393339031
  H      -0.48666306957692      1.22756384600452      2.86002937751578
  C      -1.17425243289375     -3.41739598402463     -0.35705798737077
  O      -2.35553616638506     -2.65684639889712     -0.16056781180566
  P      -2.32850172053924     -1.33817583160917      0.81458462765301
  O      -2.24921717338018     -0.09666104344579     -0.33449633629220
  C      -3.18931759559437     -0.06906139986492     -1.42604775754509
  O      -3.94374327149386     -1.20628980426732      1.02619194431576
  C      -4.62462706615253     -2.17251394637403      1.79998346718218
  H      -1.40641340249185     -4.47810428903440     -0.18078347851177
  H      -0.36186039560125     -3.10462221691806      0.32035789748421
  H      -0.81912806721703     -3.29914890485711     -1.39190789087257
  H      -2.76617711758532      0.59097652100575     -2.19379905650573
  H      -4.15137089716631      0.32167882668017     -1.06855674903318
  H      -3.31550538510024     -1.08911244344228     -1.81666190694939
  H      -5.65017235850013     -1.80861319406472      1.94939761969996
  H      -4.15377402941470     -2.31136490584250      2.78990797086551
  H      -4.65736835160207     -3.14325788621192      1.27860155620721
  S      -3.41646459354067      2.97512259824629      0.36660279656592
  C      -2.05938896555900      3.86134610856979      0.48424428720995
  N      -0.91463830343559      4.17687317737957      0.49593881834802
