35
Coordinates from ORCA job orca
  Ac     -0.35016373821997      0.00640171036209      0.48152910969596
  N      -1.66223331872369      0.43084512803186     -2.49687436812156
  O      -1.98727080341667      0.47882482931072     -3.68525853718857
  O      -1.96565323133669     -0.56057335649192     -1.79727713087652
  O      -1.02612304036316      1.35853991011589     -1.96613215150813
  C       0.34691581103497     -2.44466155701557     -3.47897768814177
  C       0.86280569773081     -2.13357662474817     -2.08293503043785
  C       1.30036508310774     -3.20001018268447     -1.26321931516893
  C       1.69460089189636     -3.01404547370467      0.08632155069882
  O       1.65901615290436     -1.94915040008956      0.72403066687475
  C       2.19028242927968     -4.24021438081006      0.85085197180714
  O       0.84997364203932     -0.93163964349570     -1.75390194543169
  H       0.38031517461183     -3.51636323768748     -3.73713143016349
  H       0.92204048951092     -1.86237654844750     -4.21867434615063
  H      -0.69127319704568     -2.07258127668194     -3.52025610016267
  H       1.30311925657013     -4.21378054623488     -1.67591985482550
  H       2.30580294837192     -5.13742010631230      0.21996976968468
  H       1.46691043998647     -4.44944851844676      1.65596710569461
  H       3.15207962334713     -3.99482764157134      1.33088227811208
  C       0.58299893391941      0.11225702858776      4.30317763605910
  N       0.36367327174945      0.11761428956414      3.14631438394443
  N       1.90630500082427      3.07962800276290      0.19686821150596
  O       3.05457546693747      3.34409921256523     -0.17685921423354
  O       1.55036039476733      1.87564796469608      0.27524843439257
  O       1.11713659537272      3.97741611206900      0.49619735155542
  C      -1.41876453473433     -3.30899208592178      1.43933518248809
  O      -1.38187279239674     -2.05234409133351      0.96993751716459
  H      -2.46242181738651     -3.71036000516730      1.60525530580917
  H      -0.90584493024325     -3.44751718061443      2.43050619349062
  H      -0.94099156879088     -4.06739734564200      0.75693130795482
  C      -3.07191535940760      2.15691954316752      1.65768962243720
  O      -2.14353542398932      1.34432985346382      1.12882435951146
  H      -3.00713512266323      3.22194275065892      1.30252240159388
  H      -3.03184004851258      2.22809231179884      2.77877574106856
  H      -4.13503837673202      1.85162155594673      1.43308101086693
