14
Coordinates from ORCA job orca
  Np     -0.21538718939387      0.77059715770252     -0.20267867126464
  C       1.44852206230162     -0.82456620151027      2.12878329232773
  C       1.50310130381728     -0.80101120831052      0.62039454183925
  O       2.03060007893634      0.21231185308893      0.08167898478139
  O       0.54354406756023     -1.37025556155215      0.00811998019497
  N       0.36063656622273      0.19500013183710      2.22721366940630
  H       2.37735645357793     -0.47968991430618      2.59900685156116
  H       1.13545778935731     -1.79422426657722      2.53431301720337
  H       0.67056664912633      1.03696070467696      2.71878307077239
  H      -0.45783114934474     -0.16421433261260      2.72381795052116
  I      -0.26609625474740      3.49624715377446      0.56112099859512
  S      -4.81350114400278     -0.18368800453933      1.11332093376658
  C      -3.35708100368320      0.10747912378654      0.66362451893602
  N      -2.21128822972778      0.33005336454175      0.30330086135919
