25
Coordinates from ORCA job orca
  No      0.28180320092934     -0.07627175203100      0.14247072585189
  C       5.20269268439343      0.10970639140088     -1.27891007425326
  C       3.81091864598740      0.11900299726939     -0.88151798703523
  N       2.70109731909513      0.12390243182916     -0.56371165042219
  H       5.36394027867365      0.83161873850985     -2.09273887916315
  H       5.48421714709303     -0.89474721914943     -1.62743061050080
  H       5.83694312102603      0.38496242678441     -0.42360200115006
  C      -0.45428256427680      2.63339785314065      2.18785083966739
  O      -0.17594015409203      1.59821278163401      1.34228365766116
  H       0.24215874999806      2.69036821741004      3.05489425098805
  H      -1.47749457709844      2.57094454333596      2.63188057937503
  H      -0.40647450907455      3.62851273084854      1.69042736651587
  O      -0.97267456016210     -0.02909521881543     -2.01110985663275
  H      -0.80970133963387     -0.97936711196746     -2.15439126060419
  H      -1.83223913984834     -0.03322587305360     -1.55553091490007
  N      -0.46798240411286     -2.78095798275184      0.08720239776747
  O      -0.01865257930369     -2.44066735512455     -1.03288667455587
  O       0.10554051776655     -2.32842870047004      1.10935391737550
  O      -1.47297474519871     -3.46549558209267      0.18320513728231
  C      -2.89491498325039     -0.21777980603772      1.45943399216091
  O      -2.29934945422792     -0.75443537020283      0.28753789850527
  H      -2.69538312174312     -0.86191531945810      2.33149330115109
  H      -3.98478469884959     -0.10052791136232      1.33407267989833
  H      -2.42724268185133      0.76082641680397      1.63663127884774
  H      -2.47612015223889     -1.71144032644985      0.25189188616951
