30
Coordinates from ORCA job orca
  Pu     -0.21329019163963     -0.06052457984923      1.53374414768528
  N       2.24408726980176      0.97506216928970      2.33817123520729
  O       3.27800997792733      1.41613489627319      2.67058831352731
  O       1.11424870435212      1.39171768512424      2.78968423608179
  O       2.10840885037802      0.03552247481374      1.47924875299036
  F      -0.96360446195344      3.37615884116895     -0.90020190059685
  P      -0.19755905615465      3.46659883848881      0.47038201381348
  F       0.91705099306750      2.33427380848281      0.17732207488737
  F      -1.15764173539575      2.37494941516101      1.28275363064480
  F       2.06372727762185     -1.27915045055046     -1.35784729363961
  P       0.98673507719703     -1.91452888336299     -0.41015654794408
  F       1.72680466028288     -3.21922350510536      0.03732534223797
  F      -0.01237484705688     -2.50874351105410     -1.47498497572323
  F       0.12856290188294     -1.68128227263446      2.64037497968061
  C      -4.83375972122444     -1.21971684034140     -3.44626980879637
  C      -4.90035759690136     -1.91392628605340     -2.23510282167200
  C      -3.95149152139903     -1.67498391027909     -1.25153002230714
  C      -2.93569591656131     -0.73288419395525     -1.48919777430964
  C      -2.87130902667911     -0.03207410147047     -2.70568456465176
  C      -3.82496649499761     -0.28048172124339     -3.68233640096019
  C      -1.92837889576929     -0.50815831530696     -0.47759136399397
  O      -1.95299050401038     -1.12913407825948      0.65679401963392
  O      -0.94729311110202      0.29829984284628     -0.62357260103293
  H      -5.57994931161683     -1.41596167402617     -4.22094374875780
  H      -5.69276170434538     -2.64645839213257     -2.06572060700207
  H      -3.97624266260927     -2.21094906894538     -0.29976887442175
  H      -2.07084097709936      0.69416528402164     -2.86734310301707
  H      -3.78632554601821      0.25179651995520     -4.63531911704355
  C      -1.62492039978565      0.83227067846676      3.69902486211243
  O      -2.14038203019141      1.22593133047793      4.61135791736752
