17
Coordinates from ORCA job orca
  Ac      0.17068126866279      0.56398743274034      0.17299697638673
  S       5.32216751749407      0.89614568332528     -0.04100678900969
  C       3.74369036771271      0.77932438357221      0.04696179834558
  N       2.54791689595688      0.69267042189875      0.11524022089801
  F      -4.06080432464999     -1.03293441897895     -0.43460418550101
  P      -3.55846395063908      0.33469100707324      0.19313157789275
  F      -2.47923489718043     -0.34384956453226      1.20625218635980
  F      -2.42181442319707      0.63687451740529     -0.94442412987768
  S      -1.92788380888592      2.79818614755042      1.54893699944389
  C      -1.08426610347732      3.09722758787351      0.17291481118407
  N      -0.39851879061325      3.04147817595342     -0.78838691577693
  O       0.08540961099029      0.23561976764535      2.73668403202583
  H       0.17648234730036     -0.62103563502773      3.17480846835785
  H      -0.38344629733917      0.82974032906548      3.33770127715895
  N      -0.06476083921557     -2.01685818796699      0.36027967652453
  O      -0.16435822139670     -3.17691883223451      0.60978335502440
  O      -0.34679635152260     -1.59804881536288     -0.82526935943714
