27
Coordinates from ORCA job orca
  Th     -0.81746941617698      1.08741442116966      1.45044832741634
  N       0.33323143667615     -0.32766456212156      3.06150324961562
  C       1.68538107103441      0.17694113742356      2.67886054787302
  C       2.07348688780212     -0.32027741729929      1.29709221110108
  N       1.03121795448795      0.06404936826185      0.26359172945875
  C       1.53014925170696      1.03671630540629     -0.79258777091926
  C       1.74089879681700      2.41774990669815     -0.21515531916327
  N       0.44477190163954      2.92641751217417      0.38159183626283
  H       0.15634917441223     -0.16123817764748      4.07159930731308
  H       0.28755936910654     -1.36062335413860      2.98630807669857
  H       2.45412890216564     -0.09719080154147      3.42829416109839
  H       1.66426570620645      1.29724705461960      2.74051419391371
  H       2.18419970219436     -1.41926992867811      1.29709429636489
  H       3.05835382754478      0.08639062647468      1.01087058382259
  H       0.78684412864496     -0.79578630225430     -0.25450947489033
  H       0.79229479968923      1.04298525758335     -1.61707765563817
  H       2.46793538720451      0.64674242512274     -1.22958545028571
  H       2.08930878727285      3.10985131728902     -1.00234801800875
  H       2.51279855090008      2.43865102794972      0.57222181425505
  H      -0.11014402637042      3.35528840665805     -0.38364188631597
  H       0.66173391131774      3.75217210104143      0.97185276232708
  C      -4.81914535486508     -0.47469023451949     -0.86534295395720
  C      -3.63117124540825     -0.03603439560790     -0.25319794439772
  N      -2.63468715690027      0.33177038902899      0.26889090329715
  H      -5.28266798342886     -1.28804494543920     -0.26097742208002
  H      -4.60288783182306     -0.86138645966732     -1.88795425335047
  H      -5.54018873844484      0.37152281762685     -0.94763247808251
