29
Coordinates from ORCA job orca
  Md     -0.08444902744684      0.16949478624569      1.30185124389182
  C       2.34546130029407     -0.85492833025029      3.28623713038744
  C       1.28446253623673     -1.49081145670068      2.42080729844200
  O       1.47069948587849     -1.42895384555957      1.16330365444288
  O       0.11052565144929     -1.52071171192370      2.87619429502905
  N       1.94306642164571      0.55463322819069      3.01655294596297
  H       3.36553268267336     -1.06803229022653      2.94190641889637
  H       2.23212072985697     -1.11324098862540      4.34628056786845
  H       2.67915664032526      1.06376992996580      2.52503748249124
  H       1.76640738799802      1.06215562008028      3.88422970057724
  S       0.65942983586373      4.16452334740451     -1.44819991008952
  C       0.54374766374096      2.95282588762224     -0.44421538317377
  N       0.44693047229611      2.03409474345565      0.32715591365725
  C      -5.42621682958792     -0.48768078254521      0.28096311587680
  O      -4.01674034912803     -0.70759994397347      0.21997561222194
  P      -2.93168396354408      0.47545020907074      0.25176901883519
  O      -3.38985211865742      1.32343110762198     -1.03663885158361
  C      -3.00176405164635      2.68337172547835     -1.24573626685481
  O      -1.63383573282240     -0.45628996140212     -0.30637518503491
  C      -1.71199333152094     -1.33439510911479     -1.45320643048292
  H      -5.89843198357447     -1.47065160032948      0.16430753322139
  H      -5.74818587694029      0.17520919499699     -0.53552078050793
  H      -5.71630383957068     -0.06152707297764      1.25426784446302
  H      -3.86766656991933      3.21162966148264     -1.66498405381211
  H      -2.16499345860758      2.72663970798704     -1.95773282201102
  H      -2.70029258769714      3.16645165661659     -0.30186404233739
  H      -2.01235111754927     -0.74894227178309     -2.33275991140586
  H      -2.44361060580506     -2.12597912302979     -1.24735944944417
  H      -0.71226936424078     -1.76203631777747     -1.59894668952705
