21
Coordinates from ORCA job orca
  Am     -0.06404940783693      0.02538019724846      0.71598717170613
  N      -0.30331268335034      0.55266317143518      3.29687041669700
  O      -0.40519742173147      0.89957347930339      4.45607478124505
  O      -0.18323806849713     -0.68258418334668      3.05842756671214
  N      -0.33539540071765      0.19768614134079     -1.76809231777896
  H      -1.35699426915557      0.03908531788813     -1.96998960491206
  H       0.25590590245162     -0.48077642320293     -2.24256285446172
  H      -0.05168608543939      1.14070344967112     -2.03416954390414
  N       2.96000249610764      0.16929940615949      0.50070679392168
  O       4.17925096878700      0.18193417911545      0.45904074126233
  O       2.26926080400427      0.17521585229175     -0.54081445870470
  O       2.34801826761528      0.14608693686915      1.59702580988160
  S       0.91844285486186      2.94922465595038     -0.21487482473051
  C       0.23087536675966      4.41687661648046      0.16311858832920
  N      -0.19273102111948      5.49226839285032      0.38804026337575
  O      -2.17410250479981     -0.12127296171850      0.40493057250516
  S      -3.39710284810396     -0.72289979309190     -0.55200502956392
  O      -4.64146084684149     -0.04076349974322     -0.06265492120639
  O      -3.02215884566430     -0.18797400007774     -1.94055878740648
  C       0.81042605209082     -3.39287478689852     -0.14074496127027
  N       0.48994669057933     -2.30905214852463      0.18534459830309
