15
Coordinates from ORCA job orca
  Pa      0.38752016476231      0.15950900213717      0.00604532809961
  Br      2.90652670747683     -0.19955124888463      0.32539558067964
  C      -1.45940653829673      0.84952404201139      1.96568785454464
  O      -2.20170742667606      1.20057173985431      2.72098798899328
  N       0.12451660538352     -2.27955950889432      0.55850458772426
  H       0.68038097244683     -2.82982119649914     -0.11362307842788
  H      -0.83131027890959     -2.65352045425738      0.46887028418060
  H       0.45935810470261     -2.58597112582450      1.48313926522123
  C       0.63118028720981      3.48062070882853     -0.51601465009944
  O       0.41795644706020      2.07354386787677     -0.23818763951081
  H       0.34528703039354      4.04195338770894      0.38388879104004
  H       0.00035847186233      3.75121990982169     -1.37316807582354
  H       1.69744365505843      3.61702451407656     -0.74280233496160
  C      -0.64247564657531     -0.79259709374094     -3.02288504143596
  N      -0.29742855589870     -0.48884654421447     -1.90573886022407
