31
Coordinates from ORCA job orca
  Cf      0.12830916634855     -0.03494654452303     -0.06560880970116
  N      -0.61743963823441      0.27440795134225      2.35935644514066
  H       0.06441589598945      0.35820570819359      3.11694921699230
  H      -1.25783163199982     -0.47292062080121      2.63979813968972
  H      -1.18172833206512      1.12826957749798      2.38412530943500
  Br      2.66101069607131     -0.38849181487372     -0.93250004082793
  C       0.38571719180638     -1.28862732890763     -3.82937160591891
  P      -0.21523454253620      0.19943049396485     -2.95366628809727
  C      -1.91322804341872      0.43224965097526     -3.58879940885068
  C       0.73993235098119      1.56016920342735     -3.71550486171572
  H       0.28799406406032     -1.17085710411988     -4.92030441762752
  H      -0.19744642510710     -2.16810996280870     -3.51446033287600
  H       1.44270824705700     -1.45334247475623     -3.56985040498440
  H      -1.92320024403907      0.47760187736310     -4.68932738274093
  H      -2.33901078047413      1.36394640366354     -3.18522531556665
  H      -2.54816662600246     -0.40569444136807     -3.26074451976058
  H       0.64103361676740      1.54494312449751     -4.81268211259483
  H       1.80184713894977      1.44653092633082     -3.44690722369903
  H       0.37537659388057      2.53066058638164     -3.34379442862062
  N      -2.65482635801431      0.23941005126131     -0.38012151369215
  O      -3.81511203450810      0.33063592935983     -0.60314047906124
  O      -2.05436363992062     -0.88829030529681     -0.29850109874340
  O      -1.89670134719408      1.24722279293199     -0.20782460254562
  N       0.87367128997094      2.35175114651513      0.14384115998497
  H       0.13521095972819      3.00773788951876     -0.12359899246474
  H       1.63351421735493      2.45493039852547     -0.53507671465678
  H       1.25738000123028      2.69335247464950      1.02780261993030
  N       0.36315940590227     -2.43455560726665      0.65024260609235
  H       0.65586945439339     -2.64329819092495      1.60739725006524
  H       1.10009090120362     -2.82522615977062      0.05512183084267
  H      -0.48365154818133     -2.98449563098240      0.48207597657323
