23
Coordinates from ORCA job orca
  Cf     -0.00106134128073     -0.07916100341993      0.23336633879473
  C       3.11158657987285     -0.74661938876534     -0.56164664567147
  C       2.35744932293356     -0.63390944823106      0.75182940050904
  O       1.59354299093300     -1.60012482097378      1.04117284468369
  O       2.13436335319111      0.52737007879158      1.17900124627921
  N       1.98759201731999     -0.39741705625139     -1.46663873867882
  H       3.47913283941900     -1.76418240255356     -0.74763291233134
  H       3.93280813249019     -0.02204175851821     -0.63737321349376
  H       1.75536928698769     -1.15385626275423     -2.10968936761736
  H       2.18372478717566      0.43568494537012     -2.01961966863963
  F      -1.44477400263788      3.09050267163643     -2.22991701483892
  P      -1.24763069267173      2.69198106734296     -0.66689242798433
  F       0.29927440756063      2.11033267307701     -1.00590585149765
  F      -1.89603701799960      1.18626156497484     -0.94931554668377
  C      -0.42174240595455      2.61098570296316      2.14389744644158
  O      -0.85259074100658      1.72619258902823      1.14587448417882
  H      -1.00200814110341      2.46079952268658      3.06964745182345
  H      -0.57890378398531      3.65882670839384      1.81715589136253
  H       0.65120887129771      2.48043721604458      2.37114805514848
  N      -1.75871858682055     -2.00837264869349     -0.73171217636123
  O      -0.81459108184657     -1.54021797709161     -1.44619504019912
  O      -1.79150460892707     -1.55737218988328      0.46132282191973
  O      -2.54569018494744     -2.79689978317347     -1.14027737714391
