41
Coordinates from ORCA job orca
  Lr      0.09011525781341     -0.28218321987601      0.14543147302010
  N       1.28648388439710      1.82325635447970     -0.44222437979844
  C       0.41179319434245      3.00802566701573     -0.29032544287352
  C      -0.37826884764159      2.90244117759362      0.99726963987270
  N      -1.19602710185994      1.67646049976074      1.05358545446287
  C      -2.55606588366943      1.78748422501968      0.49057471486716
  C      -2.65273459248441      1.21062899475426     -0.90814489540392
  N      -2.17282147829698     -0.18884311964735     -0.91012911855091
  H       2.06749738890914      1.91492166151495      0.21720023412972
  H       1.73310179575754      1.85712651309794     -1.36294716846233
  H      -0.25808087484054      3.05678483999817     -1.16401458537682
  H       0.99324261966102      3.94484577833069     -0.29140178400851
  H      -0.99972785205530      3.80551975201715      1.12816055899928
  H       0.32108245143847      2.87883548761154      1.85027558139926
  H      -1.28177734136638      1.41865534617758      2.03729138059985
  H      -2.90240453665344      2.83520037336350      0.48394394720365
  H      -3.24844692030955      1.24090547066336      1.15303129296866
  H      -2.03515872090088      1.78443698578468     -1.61864600385740
  H      -3.69268197366230      1.28689004837791     -1.26717028932052
  H      -2.22666385876374     -0.55714068493230     -1.86442573559818
  H      -2.84117492662064     -0.76451714852818     -0.38589881102495
  N      -0.17307473937767     -2.69119956134878     -0.40739123980590
  C       1.15053558146324     -3.34034215128033     -0.28446317676181
  C       2.18170449029808     -2.58173321335956     -1.08940679589202
  N       2.28944780296197     -1.18834410276961     -0.60265396776840
  H      -0.80616479853465     -3.11350201265883      0.27864451927940
  H      -0.57528177067868     -2.93608882708230     -1.31721988007724
  H       1.12223465619682     -4.39213254418067     -0.61282081337608
  H       1.42663886737826     -3.34187202037327      0.78280128323834
  H       1.88915401976063     -2.55392084941118     -2.15294310782231
  H       3.15013361037227     -3.10617913524645     -1.04284446442902
  H       2.87495480074661     -0.65730432007424     -1.25176455787131
  H       2.82062308910921     -1.19404192270034      0.27544267789611
  C      -0.21957142877696     -2.47275226633096      3.60699669050991
  C       0.47085568697876     -1.14563919670903      3.38689731784013
  O       0.42742721098273     -0.74999697631496      2.03841765749724
  H      -0.18585911272402     -2.75810022394825      4.66949098543128
  H       0.27200452365122     -3.27920845676376      3.03766089399298
  H      -1.28095939777817     -2.42447610805992      3.31098516455027
  H       1.52554330451160     -1.20598059748854      3.71050544085028
  H      -0.00282807973521     -0.36562051647633      4.01212930947016
