24
Coordinates from ORCA job orca
  Th     -0.91745592010938     -0.68898297735168     -0.35908905096849
  C       1.59252332100601      2.71713330738965      0.44508745099406
  C       1.02956594848717      1.84418921307275      1.54461306591466
  O      -0.18496282044879      1.22408928725924      1.15621723704064
  H       2.55264730834507      3.15824763635539      0.75714526742922
  H       0.90260901167058      3.53896529483089      0.19083431354078
  H       1.75298098060002      2.12583671828167     -0.46937598251008
  H       0.85406672713294      2.42180073152824      2.47023688078981
  H       1.72071252293678      1.02458933741806      1.78463207155047
  H      -0.91076377458801      1.85677608972228      0.99561533884761
  I      -2.03317749733504     -1.98028040719381      2.19740500924495
  O       1.37391370300687     -0.71704615496549      0.21695472647747
  S       2.80125208852701     -1.14294311149437     -0.15358635438120
  O       3.68277848226813     -0.98868697663798      0.99768807590353
  O       2.50647589561436     -2.93845662991473     -0.13933806264222
  N       0.77313604699148     -0.05884058662579     -2.73118482276769
  O       0.55307912976617     -1.25366576101705     -2.38247366681722
  O       0.14505738733728      0.81932574644861     -2.06606844011572
  O       1.52453266719217      0.22544957291041     -3.61715206563725
  Cl     -2.64313903501080      1.38692923050126     -0.31295257620333
  F       1.42421433317468     -5.08583714892856     -0.11538958585291
  P       1.50800062573735     -3.78003388357608     -1.04853454877902
  F       0.04422439293210     -3.13039358802259     -0.51380077961303
  F      -2.26357152523421     -1.50036493999030     -1.74448350144500
