22
Coordinates from ORCA job orca
  Pu      1.52779969920875      0.77777947747506     -0.73902022219969
  S       3.49182011634426     -0.91641003618631      3.37524520255834
  C       2.85812192095185     -0.35136838562667      2.08217225158516
  N       2.35849300448171      0.10053814821383      1.05615192112931
  C      -1.62831455301861     -0.37523842656352      0.16095366354776
  O      -0.59023144807703      0.09905658569436     -0.28889394032496
  N       1.66350347132149      3.13051052479162      0.16064437910621
  H       2.63039793828824      3.44304092728848      0.31237434923180
  H       1.24283971198310      3.16518115569170      1.09702371424098
  H       1.21799793062445      3.89551175926432     -0.35935361767036
  C      -3.23072653596755     -3.19038566294557      1.06300132910168
  C      -3.49954487773283     -1.86931404513306      0.41318905989676
  O      -2.23929370605381     -1.38785445589160     -0.23785770947876
  H      -4.17968705823374     -3.56542550520241      1.47680403916090
  H      -2.51436494338693     -3.10211802519616      1.89296510769004
  H      -2.86745329425563     -3.93082222759282      0.33591702256371
  H      -3.81582873360049     -1.08110729181708      1.11062869620257
  H      -4.20090727250749     -1.93159274353630     -0.42883415049063
  F       2.62691032939877     -2.93809865777520     -0.51150517333562
  P       2.30093570199451     -2.89878850401724     -2.05567292772376
  F       2.07463974892294     -1.17768147723279     -2.02984108406681
  F       0.75139284931408     -3.17351313370250     -1.96859191072469
