39
Coordinates from ORCA job orca
  Th      0.21924047946493      0.18987843529408      0.05008103468283
  N       1.79806518290280     -1.87199306654637     -0.08096738461367
  C       2.87225550054827     -1.79637227262163     -1.08198949637826
  C       2.32583197586192     -1.21139132563518     -2.36618770105404
  N       1.74775797926660      0.11770686523698     -2.10711346646813
  H       2.18142669432855     -1.95883959064409      0.86403255471071
  H       1.21403610288180     -2.69665901501502     -0.23605904560030
  H       3.32377509277146     -2.78310637350073     -1.27938042256450
  H       3.66313233585080     -1.14837358400084     -0.67531744755940
  H       1.51633462303873     -1.84920127112630     -2.75506463417438
  H       3.11673909442221     -1.17488357497747     -3.13418398610261
  H       1.13461060371056      0.37830536425398     -2.88124086860781
  H       2.48935349919384      0.81914484766580     -2.06762675147672
  N       2.66447380888655      1.96790991136471      0.28496930210307
  O       2.71374218413035      0.74628870971969      0.44627255038947
  O       1.49938442790031      2.34943122386787     -0.03601054524881
  N      -0.77022928911609      2.11656973155530      1.60426420599100
  H      -1.22334639759187      1.74723788329870      2.44263305913438
  H      -1.38878848656680      2.82636962426010      1.20791464630412
  H       0.06018236927063      2.61368107283626      1.93651322707334
  C      -2.64494075567482      0.39461252947145      0.03603098206952
  O      -3.76185120284196      0.29441656404629     -0.05929627321118
  Cl      0.80418002047255     -0.30417456213709      2.64092651509667
  Cl     -1.06092573788037     -1.09881797212727     -1.94515319745872
  C      -1.18860897422283     -4.12182825595908      0.42940992998039
  C      -1.94983046921914     -2.85678028331567      0.73562759051858
  O      -1.07106998349852     -1.76387893184092      1.04744292399783
  H      -1.89194793508945     -4.94792222536378      0.24365440080709
  H      -0.53868543081678     -4.42165894443623      1.26730305246527
  H      -0.58270454794667     -3.99923781100320     -0.48291399388664
  H      -2.64209968632853     -2.99181285039341      1.58282038919338
  H      -2.53167366622912     -2.53421499055384     -0.13893753397280
  H      -0.72216280247395     -1.81005471796133      1.95755715710322
  C      -1.51251304479256      2.29563138985919     -2.53132579003997
  O      -0.55988112887712      2.05436619218559     -1.49764243411335
  H      -1.01386667012759      2.67396072438091     -3.43670109995422
  H      -2.27215424928653      3.02184817154586     -2.20161489000787
  H      -1.98653369654668      1.33256792064571     -2.76150956740918
  H       0.02579218022448      2.81507445767103     -1.35261699171819
