29
Coordinates from ORCA job orca
  Lr     -0.24003164224146     -0.67281778207422      0.25237604761947
  N       0.00822966829069      1.25166598619165     -1.22141517964182
  C       0.78295705353689      2.17242918259442     -0.37755661096597
  C       2.16035174484883      1.59275024523008     -0.10277246121868
  N       2.10461032226460      0.22655138596060      0.46361408128353
  C       2.56615025808443      0.08864197703565      1.85842130924632
  C       1.43120055608271      0.23867672283785      2.85379066218352
  N       0.40662841444918     -0.78484243080004      2.59646396397121
  H       0.42577224518681      1.16851193947033     -2.15177909380718
  H      -0.93836125348451      1.61465436617078     -1.36403975427926
  H       0.22040776856033      2.31320797276123      0.56345289598528
  H       0.88928851309005      3.17418640294559     -0.82824225361676
  H       2.71695255738862      2.26837439796511      0.56811873288967
  H       2.73134309488229      1.55865883951580     -1.04591614457900
  H       2.68804759825793     -0.37923684102968     -0.11289830328983
  H       3.36679064083999      0.81352911912933      2.08726065610438
  H       3.01094424948856     -0.91482357971188      1.96770817002693
  H       0.95778207863179      1.23070861269901      2.75546391697452
  H       1.82996225052189      0.18330694884230      3.88085255175729
  H      -0.44102991530935     -0.59085563052412      3.13684294165314
  H       0.73342605207873     -1.70300859895583      2.90981432571779
  S      -4.51595177876751      1.41621723891648      1.63044934782314
  C      -3.15476496466460      0.74299779728630      1.20536138580045
  N      -2.10706345022389      0.24276071532951      0.88463521177938
  C      -0.37002296153978     -3.71173089114522     -1.19615767835104
  O      -0.12524678497872     -2.47875806549884     -0.59844645678002
  H       0.12546426394199     -4.52721263655603     -0.64035420166220
  H       0.01233727213905     -3.73391260372849     -2.23201433325867
  H      -1.45066498844978     -3.93729098047207     -1.23180520115937
