22
Coordinates from ORCA job orca
  Bk     -0.34244105660448      1.56345042969573      0.82141523501185
  C       4.20567987278748      0.22214798017374     -0.60663365068884
  P       2.59480569609383     -0.33840149543995     -0.02507611332746
  O       1.66425957156254      0.89413639853697      0.08176110648974
  C       1.94948324072982     -1.54046415295444     -1.18590608464490
  C       2.80847384865769     -1.14189451684966      1.56342302353595
  H       4.08316938235371      0.70944105375472     -1.58544656762077
  H       4.90682191181024     -0.62062645388645     -0.70040673530998
  H       4.60885198609792      0.95844082416360      0.10472811617112
  H       2.66334944175016     -2.36687190066629     -1.32362544001640
  H       1.75598430909954     -1.04734578216705     -2.15020774463149
  H       1.00850044432688     -1.92036645591573     -0.74774855742472
  H       3.53324235471197     -1.96641796922854      1.48313025802730
  H       1.81925476364715     -1.53223289143928      1.85811917401750
  H       3.16069691397049     -0.40467462992205      2.30047389443367
  C      -2.52571238463316      2.40396268592034      2.24393150849790
  O      -3.38759237671738      2.85806769645298      2.80824080195663
  Br     -0.66519780982504      4.29105071803491      0.47543918011681
  O      -0.43296661329949      0.01573850338920      2.35888597243313
  S      -1.20960278228735     -1.09784003694769      1.45911849217403
  O      -1.51917259339985     -0.12715205745424      0.17980313261726
  O      -0.17448812083279     -2.06704794725079      1.00898099818161
