29
Coordinates from ORCA job orca
  No     -0.55444646184194      0.28922116766399      0.04907312934817
  N      -2.51748141430052      0.96797405493204     -2.06290572525592
  O      -3.34709338012124      1.31464957053832     -2.88453274847835
  O      -2.84082877683302      0.31794764648023     -1.04170179857654
  O      -1.30144473046524      1.24778591640721     -2.21055496300405
  S       1.98353461337067     -3.43198188995860     -2.43565218820817
  C       0.88131829239680     -2.58257640310169     -1.56455271921938
  N       0.11195970184855     -1.95455969954368     -0.92718111342017
  N      -1.16968388467933     -0.61874559536331      2.19997384570950
  N      -1.13467515655632     -1.20453187970894      3.22936062391025
  N      -1.07971721999457     -1.77565647622404      4.23806957833236
  N      -0.21694438363978      3.16919885719173      0.93637439785724
  O       0.74380906758055      2.38645170614702      0.75536908036983
  O      -1.33842481011651      2.66820003949008      0.76698568747427
  C       2.84227585487840      0.07935786939847     -1.21674385428239
  C       3.50018582054184      0.22085013298434     -2.58775779377256
  C       2.83305892540339      1.48482661023787     -3.16592149702915
  C       1.73132452213879      1.81189999530323     -2.14226302758270
  O       1.55990143958055      0.62330356148977     -1.40181175056671
  H       3.38689486717568      0.65493360996030     -0.43804166718154
  H       2.73762849702676     -0.96612775991013     -0.89511393716251
  H       3.25075482969521     -0.67265618895176     -3.18188241935656
  H       4.59801195551213      0.29620124158287     -2.52334128383076
  H       2.40452325512648      1.28386287078984     -4.16016430106317
  H       3.53911664062371      2.32520439362245     -3.27296827906805
  H       0.75838978614606      2.06924760309066     -2.58271766564274
  H       2.03667211747848      2.62356817332037     -1.45414926590052
  C       1.35872050609497     -0.86154943983891      1.74299290065618
  O       1.74635952592936     -1.48979968802983      2.60735875494422
