27
Coordinates from ORCA job orca
  Th      0.38148243290832     -0.43205110891750      0.10414339290497
  O       0.91361793829325     -1.32731011117857      2.08176952029396
  S      -0.00877418997769     -0.41082181927591      3.09119634473269
  O      -1.11883712304503     -1.25021281865786      3.56829993055522
  O      -0.59091721359376      0.55579364765822      1.90668898327109
  O      -1.67806697699635     -1.33806059677841     -2.87906453827697
  S      -1.03081247695241     -2.23175455340010     -1.87284962691824
  O      -1.47518420082801     -1.67562403776048     -0.42656633545817
  O       0.52058743934819     -1.76095588631423     -1.75143026380865
  C      -5.62627742054230     -0.28046346251946     -0.00316194634452
  C      -5.47195429506311     -0.34436224292028     -1.38902493252571
  C      -4.29041891171230      0.09556339262002     -1.97408634459095
  C      -3.26561723139671      0.61296131850719     -1.17452733707530
  C      -3.41068044454641      0.65367810576510      0.21588171430904
  C      -4.59430541162719      0.20901626845051      0.79585587996941
  C      -2.00268533699889      1.10992459664810     -1.76685080378546
  O      -0.96861769993474      1.23318507514630     -1.11560419715476
  O      -2.02108813269124      1.55860762428298     -3.00115482981169
  H      -6.55074005962016     -0.63954462494996      0.45784299319387
  H      -6.26491495914767     -0.76565803315167     -2.01242052883713
  H      -4.13971712693114     -0.04595925077375     -3.04945698946131
  H      -2.58323359654544      0.99665292200753      0.84650825303055
  H      -4.69409934158779      0.22295543028182      1.88380575065986
  H      -2.86943883560756      1.33687581248525     -3.40756459855446
  S       4.79767635028141      2.21435828994349     -0.70118725804198
  C       3.42231460299381      1.43029784435030     -0.46024198647663
  N       2.39961741438616      0.84586572209807     -0.28022846340508
