25
Coordinates from ORCA job orca
  U       0.48337121778657      0.66697483163473      0.47200073766510
  N       2.67738804939867      0.51567943133112     -1.35028013869337
  O       2.66286061993033     -0.00100334897837     -0.20310902630230
  O       1.62340773642788      1.15038533565492     -1.58695129737415
  C      -3.44617843740502      1.95794789365645      0.47738130649845
  C      -2.85542923925148      0.75956475675361     -0.22212218108816
  O      -1.45618069485964      0.66404164451382      0.01903425472515
  H      -4.52842530821685      2.00606625825959      0.28411432959319
  H      -2.99738351661050      2.89382841206548      0.10960694040139
  H      -3.29767895988904      1.89402548542768      1.56632627786592
  H      -3.00104420522089      0.81449462758991     -1.31352185559481
  H      -3.31907787870328     -0.17589787786559      0.13335751007174
  I       0.80280103853913      0.87966189695059      3.35034753618534
  C       1.26718589951905      4.02818568331074     -0.41861293757974
  O       1.02704066777819      2.98947079072763      0.55035148532093
  H       2.25981808850140      4.46802044029356     -0.24861745273475
  H       0.48585943214081      4.79739146240480     -0.34132924308103
  H       1.24382387264826      3.55731881478794     -1.40863604412625
  H       1.12039624643079      3.32501826449712      1.45712066953178
  C       1.26233221794718     -2.73140368142706      0.56408448420124
  O       0.29571997312527     -1.69982141977259      0.26710553308773
  H       1.32033191047619     -3.43209345132684     -0.28044475022948
  H       0.97827561349001     -3.25258440057509      1.48884403612335
  H       2.23204195212864     -2.23564619921039      0.69144594824405
  H      -0.56905629611163     -2.09362565070384      0.08240387728871
