12
Coordinates from ORCA job orca
  Pu     -0.30998864347756     -0.08158573745070      0.76370572574331
  C       2.36276021955478      1.55056588276558     -0.67597748582947
  O       1.73622571605089      0.28160058699290     -0.37054215740128
  H       2.66666277224680      1.56553173051067     -1.73149928193248
  H       3.22523252105915      1.70881176641339     -0.01391207900439
  H       1.61559095694009      2.33401534249527     -0.49345967125996
  H       2.37365623466314     -0.43914852275306     -0.49695354032396
  I      -0.30732654263256      2.09498282271635      2.54139834146025
  S      -4.95738579222360     -0.07344413956900     -0.71511806546236
  C      -3.45064103275217     -0.07772639409038     -0.33778765671635
  N      -2.26659239420468     -0.08351453394873     -0.04343952434376
  Br      0.05770598477574     -2.34778880408231      1.96398539507044
