24
Coordinates from ORCA job orca
  Pa      1.03377073273192      0.20358456555844     -0.23105142496195
  O       0.67305088099417     -1.50594522303787     -0.62088780654571
  S       4.16121656433229     -1.62099036250895      0.72219400507248
  O       3.36782086730723     -0.58282473775033      0.01422493678222
  O       3.48115654794272     -2.29177507460565      1.80149313564383
  S       0.97940221799772      1.40988655940516      4.57035250208372
  C       1.03631183887325      0.96150483282578      3.07427711710525
  N       1.07327020164642      0.62664908203057      1.90985278899193
  C      -3.41469944863558      4.49205439677993      2.32895973483218
  C      -2.11531980098956      3.98435008937165      2.37688770812674
  C      -1.69549044636146      3.06772261917666      1.42309734672367
  C      -2.57835567870509      2.66104286272660      0.40918616727388
  C      -3.88732556328453      3.17202991824574      0.36952419141251
  C      -4.30181313518151      4.08404098118515      1.32958567293482
  C      -2.10557430417432      1.71155337801327     -0.59246950925643
  O      -1.07327731991780      1.03533241801603     -0.42876558991386
  O      -2.74431345347173      1.53599174970508     -1.71199798144248
  H      -3.74307166348187      5.21405515249971      3.08114120516224
  H      -1.42473039444464      4.30505990047277      3.16027389199728
  H      -0.67680446811085      2.67481233779149      1.44545193313165
  H      -4.61144253599860      2.83941709472855     -0.38269240233591
  H      -5.32108074133546      4.47520742281250      1.30618867779247
  H      -3.48946096647290      2.14973564531305     -1.80392699242516
  Br      1.83036006874042      2.65380439124433     -0.96439930818554
