12
Coordinates from ORCA job orca
  Md     -0.11879510441907      1.14542285679999      0.97438184044619
  N       1.59052169037400     -0.11626859907145     -0.27174918280778
  H       1.99907529347245     -0.92758730782542      0.19297814610279
  H       2.35901098669563      0.50478818450497     -0.53104896013704
  H       1.16285804174202     -0.44962617355029     -1.13837656336463
  O      -0.04567051516717      0.29065743387541      2.79765299264352
  H       0.00851050555460      0.05410802901661      3.72238740133447
  N      -2.43275348211485      0.58474556828640     -0.46148159619386
  O      -2.39524199983593      1.41470489254122      0.49908662785448
  O      -1.31322216290267      0.03953022594701     -0.73724906786663
  O      -3.43042122404192      0.33347123081242     -1.05753929184592
  F       0.94992797064293      2.82665365866311      0.61525765383440
