40
Coordinates from ORCA job orca
  Cf     -0.08577836064606     -0.01584504996180     -0.13868160005664
  N       0.43008090611211     -0.55800859651583      2.22650579121373
  C      -0.64013936206670      0.19326790076278      2.90836524785554
  C      -0.43134710782916      1.68374958097248      2.71812426065023
  N      -0.37149293997292      2.07989829111874      1.28497807702690
  C      -1.55886167289842      2.83731109859093      0.82012046204834
  C      -2.73392349702343      1.92626006039575      0.53745519891377
  N      -2.36841715855322      0.95006369284490     -0.50817621774147
  H       0.28219810761792     -1.56383776177799      2.35896018736905
  H       1.33200377176302     -0.35166871640070      2.66606242331339
  H      -0.69050279170675     -0.03852607834594      3.98564745207135
  H      -1.60616217092840     -0.13476759476800      2.48176156410481
  H       0.51220677556415      1.98462205753564      3.20337872311725
  H      -1.22962667861823      2.23964483368107      3.23784874375382
  H       0.42660444847492      2.71044434800988      1.18243546984555
  H      -1.27599754768440      3.37609579085043     -0.10125309394159
  H      -1.84465770103166      3.60783386860556      1.55715258361881
  H      -3.60982102917942      2.53100550028510      0.25023504965433
  H      -3.02956675527646      1.37422663264959      1.44457839070162
  H      -2.46468631749660      1.38982704846466     -1.42815934452809
  H      -3.03635117434519      0.17278815293299     -0.52093608333211
  C       0.59022565015650      1.19649274133032     -4.14194722643949
  P      -0.02262806767839     -0.17758222703561     -3.10401785164219
  C      -1.71409277725099     -0.49519049035596     -3.72547634264597
  C       0.91131111434441     -1.63735677167436     -3.68804311513090
  H       0.49781707839573      0.93657999069671     -5.20872174417630
  H       1.64956792352173      1.40229326383048     -3.92404881957040
  H       0.01212035136267      2.11447718887708     -3.95493331791079
  H      -1.68000182961992     -0.73358295774624     -4.80091998078527
  H      -2.35792633093990      0.38923864776461     -3.59744993660171
  H      -2.15836117950587     -1.35056070911152     -3.19225084960494
  H       0.74718863344804     -1.77690534724610     -4.76884233859849
  H       0.56637793478703     -2.53947154058737     -3.15736675540067
  H       1.99241388675618     -1.50565791630056     -3.52557993944632
  C      -0.67307851427972     -2.73051936798665     -0.62125443652171
  N      -1.24085475398946     -1.90552941216570      0.01468829789402
  N       2.16125650747776     -1.07044605010741     -0.54532587882023
  H       2.76477642142714     -1.24651891697125      0.26379763403661
  H       2.78143851514209     -0.67181193219125     -1.25632026094265
  H       1.91218769216994     -2.00563325294946     -0.89509042335112
