25
Coordinates from ORCA job orca
  Am     -0.23317445517652     -0.84025035683738      0.14236423222947
  C       6.19793442325583     -3.67332441866946     -0.12485194705079
  C       6.00986059142097     -2.29879846024077     -0.21360314164148
  C       4.68508822551664     -1.72677123427441     -0.11573219422788
  C       3.57131921712201     -2.54829886323389      0.06541435121922
  C       3.75630871578043     -3.92582574574390      0.14945488063794
  C       5.08536070742885     -4.49084796285519      0.05675997459992
  C       2.20982352669240     -1.95472002904524      0.16248490258235
  O       2.06800078292552     -0.69652048968852      0.12127594328813
  O       1.19552177737203     -2.69598342095577      0.27692707797169
  H       7.19986438397499     -4.10471554284453     -0.19591939826631
  H       6.86255395445812     -1.62703330215454     -0.35809214897769
  H       4.55236677703283     -0.64128504906460     -0.18583532614632
  H       2.89251120442694     -4.58558876671861      0.28703405142147
  H       5.20094250997441     -5.57736510254368      0.13200171200606
  C      -2.60636853492873      1.39827993489128      0.86189615782904
  O      -1.61367995801451      0.40310707030341      0.78410266019739
  H      -2.27102163964936      2.30880713385577      0.34145500225181
  H      -2.78035707913160      1.63077887219044      1.92592113156557
  H      -3.53406751061032      1.01775845431458      0.40739693561055
  F      -3.70295426690781     -1.50924433356243     -0.64726104873973
  P      -3.31648542324007     -3.03934056116121     -0.48333832584017
  F      -2.71207708348472     -3.27631186850507     -1.91424970976905
  F      -1.79241100080059     -2.63982258281627      0.21254051336981
  Cl     -0.47965984543789     -0.56528337463980     -2.23424628612100
