27
Coordinates from ORCA job orca
  Bk      0.57449964616348      0.69276437440873      0.66393153992270
  C       3.11389904173050      1.57471807924375     -1.46887779738216
  O       2.77636288534727      0.73563802057431     -0.34991652426576
  H       3.86660415175013      2.32009184081674     -1.17447146980524
  H       2.19494849080107      2.09568555199240     -1.77060782156536
  H       3.48542353168736      0.96417974727570     -2.30468904495743
  H       3.57867197002799      0.32415279544450     -0.00046011698491
  N       0.62495438849750      1.18798042493344      2.73999035066628
  N       0.53522769282202      1.64546321935651      3.85506512452947
  N       0.45738951777917      2.06709130172715      4.90446679515562
  C      -3.63487839841952      0.64326219393973      0.58694658765629
  P      -2.71125871726334     -0.87083455668677      0.32605368698951
  O      -1.17801257914454     -0.60922683835259      0.38826292904329
  C      -3.16456624330031     -2.05386349036489      1.59540739683122
  C      -3.14062228669033     -1.54560151074133     -1.27946558828845
  H      -3.38850943669699      1.38609587293516     -0.19037671434208
  H      -3.37801234238349      1.06346413842209      1.57198150781264
  H      -4.71606508975005      0.43644234475490      0.55710272690441
  H      -4.24339907897696     -2.26898563696406      1.56135732693195
  H      -2.90793197981167     -1.63984765938693      2.58251876993418
  H      -2.60181537736377     -2.98690494422911      1.44144378321635
  H      -4.21889061459401     -1.75963824854203     -1.33365817898899
  H      -2.57676650689345     -2.47569130909937     -1.44707260691213
  H      -2.87736912560927     -0.81750208115601     -2.06178121434319
  S      -2.45621522291154      3.99839783380248     -1.14856701741490
  C      -1.23151839241318      3.09833851173823     -0.72018985939329
  N      -0.31674992438392      2.38833002415741     -0.39049457095017
