18
Coordinates from ORCA job orca
  Fm      0.07146060508476      0.22897943376234      0.12732997182559
  O      -1.51303772341575      0.35854328096931      1.83892124727604
  S      -0.24246148985185     -0.05084275858677      2.67865589561560
  O       0.22553857731867     -1.29749992258489      1.83312416066020
  O       0.79027223788077      1.01349849017480      2.10953949262250
  C      -2.23637630774692     -2.23293735382642      0.16310925044958
  O      -1.46328237557157     -1.36740851393839     -0.66733415597968
  H      -1.62101294164810     -3.06276513102531      0.54132476351862
  H      -3.10594766938197     -2.61267603754404     -0.39528697771834
  H      -2.56379449789429     -1.62160453708061      1.01323859943694
  H      -1.09172354658736     -1.83408653632373     -1.43010531317873
  C      -2.03523069443437      4.58331410277013     -1.39554996674421
  C      -1.42278403290500      3.33104298377096     -1.01429799074176
  N      -0.93344840524573      2.33258210635587     -0.70897123300755
  H      -1.57957628628840      4.95200992626033     -2.32616313899497
  H      -1.88579917347781      5.32525270897145     -0.59755835221023
  H      -3.11351505165267      4.43446604779838     -1.55289198085714
  Br      1.34721877581762     -0.24586828992339     -2.20868427197246
