22
Coordinates from ORCA job orca
  Ac     -0.06131944081970     -0.35424598679911      0.61870584114054
  C       4.45146889951088     -0.65213190857897     -0.99659823065907
  C       3.10201939123429     -0.15601745363440     -1.10884359288195
  N       2.00348631628145      0.21182632452349     -1.15080040393066
  H       4.46526612904680     -1.29727028745011     -0.09375781440065
  H       5.15587431809715      0.18342347219675     -0.87693261150385
  H       4.71583567674181     -1.23866443161833     -1.88808692820427
  O      -0.73135298138637      1.11233948159011      2.25424833240275
  H      -0.79937211409374      1.42544063695873      3.15883882356895
  C      -2.92614899876526      1.80561126355197     -0.39088279727390
  O      -1.56414843347294      1.78634740403747     -0.03717327828105
  H      -3.37084921263116      2.80212925442342     -0.22451732130586
  H      -3.51314217061684      1.05863242560912      0.17432297736330
  H      -3.01264646933046      1.56915377806413     -1.46145219358806
  H      -1.45521389702175      1.87620984426798      0.95255146031912
  C       2.13294447287504     -1.67396298447888      1.53174248854083
  N       3.24005751078317     -2.05166768981878      1.53357378136063
  C      -2.48344431606859     -2.87645758366134     -0.16025572957775
  O      -1.56561352524907     -1.86837190428303      0.06938030240377
  H      -3.50920582404603     -2.47984621149783     -0.29770564939766
  H      -2.52590633109032     -3.59606798853880      0.68081681719308
  H      -2.23812309139345     -3.45937316574380     -1.06985736208682
