16
Coordinates from ORCA job orca
  No      0.45485291619864      0.71251859827287      0.60051450091994
  C       1.77627241290008     -0.90288742320738     -1.15107838350710
  N       0.65225053083012     -0.72293958491867     -1.45776567700535
  C      -3.83044312570058     -0.28390823062451     -1.11847943216061
  C      -2.46221738804983     -0.13809482217768     -0.89119025617674
  N      -2.00689486570794      0.16297457656109      0.32558964517794
  C      -2.89298070272176      0.30490456513329      1.31188437488007
  C      -4.25736295728489      0.15474152702290      1.05971347465725
  N      -4.72968987007645     -0.13455114361093     -0.14959435497456
  H      -4.20140224115316     -0.53144246576763     -2.11982359607608
  H      -1.70324343525597     -0.28127915554028     -1.67003428916811
  H      -2.49073128693108      0.51510940505867      2.31177139717799
  H      -4.98351724172213      0.27362063155766      1.87196220472981
  C      -0.01362282875471      0.25092663966599      3.03024642490248
  N      -0.69240710987227      0.13139949346287      3.97709107209933
  F       0.26273719330199      2.75000738911172      0.17169289452372
