24
Coordinates from ORCA job orca
  Bk     -0.18545089714754     -0.09954817996150      0.24138822977502
  C       2.16650932880464      2.04878749036275     -1.12375592167153
  C       3.68077249685928      2.04256717818077     -1.12573150358417
  C       3.99416833311089      1.92019070690489      0.36205628980479
  C       2.93170657447124      0.94787721286672      0.84400373208024
  O       1.81352971824971      1.14267845011105     -0.05870984160591
  H       1.69841851154277      1.68610395010402     -2.04996205062129
  H       1.75580406043409      3.04480387173551     -0.88549700357470
  H       4.10219596777918      2.94638725943327     -1.58877474737120
  H       4.05889484185279      1.16589729476803     -1.67708870965271
  H       3.88007149250515      2.89619491276925      0.86092944539779
  H       5.00987632109998      1.55269720552503      0.56681051902095
  H       2.58026617216218      1.13717795815627      1.86987720355104
  H       3.24915653248076     -0.10488954173879      0.75666246493796
  S      -3.82409522069030      0.97508691194503     -2.21903074336265
  C      -2.27432851130254      1.01369813768645     -1.83954694021796
  N      -1.12292148549873      1.00142764042851     -1.50845899376498
  C      -0.42186493451054      1.30797819915418      3.37611017047532
  N      -0.38163935357752      0.81449287808151      2.30249959408953
  I       1.12473406239630     -2.70104402266531      0.06367417546876
  N      -2.52727565069429     -0.94848498000404      0.61431597198660
  H      -2.84450370518781     -0.65530928004781      1.54152981852021
  H      -2.61291925427003     -1.96664373597873      0.58149709471227
  H      -3.19920540086971     -0.56822751781711     -0.06579825439339
