35
Coordinates from ORCA job orca
  Fm     -0.51698404474982      1.31056878077943      0.75467494932707
  C       3.70019546178931      0.92548332152649     -0.87970017299811
  C       2.25700415635056      0.66317221009192     -1.19922375676519
  O       1.47095224875011      0.44678758601653      0.02247963253710
  H       4.25429088703626      1.08763309999085     -1.81701198381386
  H       4.16695682826774      0.06091538999101     -0.37982972032112
  H       3.82935200764900      1.81962823420705     -0.25164109684582
  H       2.12220928227604     -0.22460648812335     -1.83632607352033
  H       1.77932440131695      1.52137838487528     -1.69885602616535
  H       1.93095803457303     -0.20245980408795      0.58027933520900
  C      -4.31960827436189      0.39235006282551      0.50595048555136
  P      -2.79568203254794      0.08188953002234     -0.44715657363430
  C      -3.19656549126567      0.55838507531065     -2.16160873943571
  C      -2.61450786772479     -1.73224978663122     -0.48208241861985
  H      -5.15721426615219     -0.16603268378688      0.05667147714460
  H      -4.57355963858954      1.46366372748088      0.49677512755473
  H      -4.19523127563542      0.06178233899046      1.54858456799066
  H      -4.08575148766958      0.00368392155251     -2.50327395508791
  H      -2.35920378972972      0.32216468114173     -2.83618969958188
  H      -3.41253332495446      1.63593152233856     -2.22677912544879
  H      -3.53121887910430     -2.18918862272155     -0.88940326012210
  H      -2.44740100704715     -2.11801332971498      0.53514552246209
  H      -1.76531120323398     -2.02452599167703     -1.11885746432527
  C      -0.26319615870219     -1.83538934136908      3.40374911399954
  C      -0.66343304287617     -0.39856587074849      3.63237567172910
  O      -0.60986563531579      0.35322241163958      2.42896360181058
  H      -0.31210164630679     -2.39243951788554      4.35155229250589
  H       0.77089410112414     -1.91153025693158      3.03145924498994
  H      -0.93760243306838     -2.33436455923296      2.68974446669699
  H       0.00469198479681      0.08683784198536      4.36354965828845
  H      -1.69024368707344     -0.32998509477249      4.02950900148801
  N      -0.79863278086757      3.57983615687078      1.64736177474673
  H      -0.84147319125503      4.36857114451987      0.99177679413699
  H      -0.04889648032425      3.82682544221623      2.30473022067097
  H      -1.65551175537369      3.65744048331002      2.20850712784569
