29
Coordinates from ORCA job orca
  Bk     -0.16790866951357     -0.31310042464307      0.32410655651759
  N      -0.10139230623320      2.54319298826310     -0.07808342527516
  O       0.55727887593286      1.99967921437978      0.85909904656222
  O      -0.75781340695112      1.73867791282162     -0.81598944959505
  O      -0.11024589951985      3.72166384352926     -0.25870545036999
  C       4.53187265217848      0.46495753267032     -0.11496545017074
  C       3.16947652784858      0.61946925814220      0.14009110659272
  N       2.30188833963181     -0.33002494400123     -0.22136481328843
  C       2.78049117500813     -1.41951509197148     -0.82932814252108
  C       4.14673921036904     -1.55378990855846     -1.07073329063190
  N       5.01808381413075     -0.61584240187924     -0.71517506261107
  H       5.24123530273098      1.24553332457448      0.18040764158634
  H       2.75855482335023      1.50885657374123      0.62913329385157
  H       2.05089465873583     -2.18093480907119     -1.12318185885827
  H       4.53680292937276     -2.44902637816728     -1.56671324090755
  S      -1.87699601595082     -1.41268482472554      4.19582398388377
  C      -0.64563511835364     -1.47210072298860      3.15518588584305
  N       0.20702495129574     -1.46064766318099      2.32361153597694
  C      -3.20110846401980      1.24456380224558      1.26652284690879
  O      -2.27780984718113      0.17844287348975      1.42445569209035
  H      -3.09734232222860      1.97664002519608      2.08389146053305
  H      -4.23517841482487      0.86524529938433      1.24391363497230
  H      -2.97771723228436      1.73999569781036      0.31193699361360
  H      -2.41129642300626     -0.26058544846381      2.29804973982280
  C      -0.76967432703918     -2.72258657919993     -2.04851147719723
  O      -0.45184470259514     -1.76907704252841     -1.10344935506996
  H      -1.36779421527596     -2.29850751351538     -2.87773298557356
  H      -1.35454386603327     -3.55422918878213     -1.61049004913298
  H       0.13845797042569     -3.17046540457131     -2.50210536755212
