35
Coordinates from ORCA job orca
  Md     -0.31309849285506      0.55916610504837      0.39909065411752
  C       1.32589111870640     -1.49550224016407      2.45128213452645
  C       0.78377682013792     -0.32309431530705      3.29009849481155
  O       1.02809740772586     -0.30560062083582      4.49068917382623
  O       0.15049474843973      0.56358629268006      2.61689639945136
  N       0.64425915554231     -1.65065106747059      1.18427894525239
  H       1.33397922845548     -2.40037683387249      3.08831954507553
  H       2.38111023077619     -1.25366609708215      2.23391964611573
  H      -0.16477347520445     -2.26613610580025      1.23437209938080
  H       1.27878825549087     -1.96466157933046      0.43609085106131
  C      -1.90811854197325      2.62587812635922     -1.59884874029312
  C      -1.59993579788967      3.41292931356562     -0.30771156555349
  O      -2.06258278401968      4.54146256190842     -0.19336877921450
  O      -0.89325880894043      2.76989119750083      0.54271760239489
  N      -0.93987481933049      1.57450862727848     -1.81161469294712
  H      -2.01153339075040      3.34965665591692     -2.43079897909950
  H      -2.89740678274249      2.15872912207836     -1.44934353386532
  H      -0.03143403674759      1.93343762525939     -2.10341496690129
  H      -1.21198015130715      0.84886624773324     -2.47440497231655
  F      -1.25503279270890     -2.99735119702453     -4.17611143645069
  P      -0.57072389388002     -2.15164707410892     -2.86742772963559
  F       0.86631947643085     -2.24285693984114     -3.63408760562305
  F      -1.11563553755769     -0.75923570001837     -3.57103998396956
  C      -3.07867879091674     -2.55975837061398      0.02463363915513
  C      -3.17359302862234     -1.07370933876429     -0.31184908267162
  O      -2.23440796424974     -0.33237331530899      0.33612562249212
  H      -3.88304633266350     -3.14548347813944     -0.45746701266179
  H      -3.14444293489190     -2.70160802063580      1.11744920371219
  H      -2.11244872380024     -2.95747865732965     -0.32878482460109
  H      -4.21129334530615     -0.73317941636930     -0.06307874262394
  H      -3.09683978636370     -0.97871002449018     -1.42476250117286
  O       0.33657381639435     -0.97745235532172     -1.60916003292013
  S       1.92777216102567     -0.53417151576767     -1.59864850098014
  O       1.77235491060665      0.65488453324185     -0.59297910428786
  O       2.62302288298953     -1.67029214497376     -0.90266122358387
