17
Coordinates from ORCA job orca
  Bk     -0.02985968812628     -0.98656626621104      0.21337227347589
  N       1.89246363466678     -0.51707240285162     -0.92802707861970
  N       2.87904244530055     -0.27880438817307     -1.54823518624726
  N       3.83300703108336     -0.04727241276305     -2.14843190659569
  C      -2.33581252265963      1.38473240859778     -0.74525594823109
  O      -1.00491086766257      1.31164932880448     -0.32028868105029
  H      -2.65792805483608      2.43548896440369     -0.88637054605915
  H      -3.02500957364609      0.90998201394813     -0.02081437840262
  H      -2.44489192704013      0.85123112683334     -1.70181532439674
  H      -0.96810040174076      1.29317386831792      0.69096794204846
  F      -1.43845947155769     -1.65270750986606     -1.16255354996113
  N       0.11046766275478     -3.27929412301214      2.01550137658814
  O       0.21117829197062     -4.22243181818307      2.75711550945155
  O       1.08996282908354     -2.87050603691474      1.32191270146737
  O      -0.96268720600409     -2.63939349592942      1.88171294800502
  O      -0.54023627265176      0.39586534482308      1.87941455750931
  H      -0.86892590893451      0.22122539817580      2.76329529101791
