15
Coordinates from ORCA job orca
  Fm      0.01428881227540      0.88639338205624      0.60661389160433
  N       1.66902129497380     -0.74755278297976     -0.28654073789891
  H       1.12215470949219     -1.55536523418255     -0.60617036261303
  H       2.30731718701376     -1.11889505969031      0.42371634147884
  H       2.26319177563776     -0.49505246407301     -1.08150474130526
  O       0.05651728519778      0.76672116040546      2.56969197263475
  H      -0.12670248657272      0.58264293806681      3.49428610706332
  N      -2.44057683587047      0.27753559607435     -0.44251677733901
  O      -3.49609541431095      0.01014461543423     -0.88581436667488
  O      -1.57621178167404     -0.60111702631487     -0.08688156696466
  O      -2.02793608450816      1.47986204532022     -0.26841762572581
  N       0.15910914480633      3.33366549782542      0.33218231900439
  H      -0.77703653928123      3.63882000015749      0.04418566121819
  H       0.80641575535926      3.76222486533903     -0.33497850368560
  H       0.33864317746131      3.79817246656121      1.22754838920329
