48
Coordinates from ORCA job orca
  Cf     -0.08220081817884      0.54629895032121      0.27217477466029
  C      -1.09922591637610     -2.04427416362753     -1.74313083610753
  C       0.31892795822602     -2.30296023850476     -1.22110642525796
  O       0.78627504492036     -3.43116705942423     -1.22117161825986
  O       0.91029456437382     -1.24277132090353     -0.79381714691468
  N      -1.78973541911059     -1.10927196381888     -0.85820057780677
  H      -1.62025151701261     -3.00766340927150     -1.87339440738322
  H      -1.00420669736091     -1.56714871041591     -2.73358031142988
  H      -2.12030980956752     -1.57930255269351     -0.01533236833836
  H      -2.60043006200677     -0.68092533481589     -1.30903316321015
  N      -1.57531472926088     -0.44770906605222      2.26109211490506
  H      -2.34732726716330     -1.07402632556568      2.48018588543158
  H      -1.91576285515158      0.52383593461942      2.29544430781628
  H      -0.86464332664051     -0.56063006583716      2.98406094399330
  C       3.64164895803778     -0.83354143437162      3.28755061916526
  P       2.66055765989233     -1.06193233792811      1.78448621349494
  O       1.32953191142632     -0.31975030326055      1.96232325434672
  C       2.46898544483237     -2.83790612631264      1.56139074765131
  C       3.64988289450565     -0.44457685188930      0.41376422355406
  H       4.60788566248424     -1.35635704053957      3.22688899037686
  H       3.07077611688048     -1.21872561611087      4.14593769373052
  H       3.81312966289505      0.24318099756267      3.43604166501290
  H       3.45201268271279     -3.33149381913933      1.61898151380718
  H       2.00775686060536     -3.04926996092513      0.57747095186746
  H       1.82303199322685     -3.22846582973692      2.36295509422431
  H       4.67563212968754     -0.84047969401173      0.46078385203528
  H       3.64534064286181      0.65516777691417      0.45456238846760
  H       3.14464332347678     -0.76910263546598     -0.50912830265012
  C      -0.54669121516001      4.14734266911290     -1.82909852017567
  O      -1.55751961578974      3.30455380149501     -2.36870056572683
  P      -1.47254236741095      1.68609777820731     -2.12293882008176
  O      -3.09516702868202      1.37288447349283     -2.07970235013637
  C      -3.91883470144328      2.08241918854246     -1.16553422974978
  O      -1.19431242957955      1.07720439054277     -3.60767325599400
  C      -1.96173079834203      1.46480406330141     -4.73449283221956
  H      -0.03556060978094      4.66979408246067     -2.65358278925789
  H       0.19388028935304      3.57069406158197     -1.24307410306370
  H      -1.02340286602800      4.90058001457881     -1.18157407841145
  H      -4.87789637498965      1.54671033671864     -1.10921534784877
  H      -4.10042593762273      3.10612113011885     -1.53151637320194
  H      -3.44602035627149      2.12379362819695     -0.16765590939746
  H      -1.46634886217713      1.05218894563889     -5.62413096520681
  H      -2.00685587233781      2.56284191154581     -4.81704108720872
  H      -2.98665667516730      1.06875701919895     -4.66399329880618
  O      -1.55511048364572      1.99224643665362      1.02546108478110
  H      -1.48618990798997      2.95121917626897      1.01660679168189
  O       1.39507067290802      1.94955308299620     -0.33423052857281
  H       1.99971004694132      1.99846201055205     -1.07871289858565
