24
Coordinates from ORCA job orca
  Fm      0.84887812394418     -0.30745789802765     -0.63207737846240
  C      -3.40127394914586      0.38604199643744      0.80319486790389
  P      -2.24867709100085      1.33094976198221     -0.19783758717817
  O      -0.78711150186621      0.97598507865141      0.15910664013907
  C      -2.60758655879002      1.00937984305659     -1.92462997919904
  C      -2.51894475362169      3.08077792756661      0.13346774860620
  H      -4.43747836496752      0.69751913028809      0.60095429247237
  H      -3.16738678405386      0.53560733429611      1.86779959731975
  H      -3.27267525971975     -0.67549371381284      0.53848480675683
  H      -3.60440575202162      1.38861708079829     -2.19620323406205
  H      -2.56902650042704     -0.08569360877685     -2.05701475042227
  H      -1.83036757687707      1.48250870540818     -2.54672876262758
  H      -3.55693835914004      3.36931448613724     -0.09044853373702
  H      -1.83050079982770      3.67129154376420     -0.48972408082002
  H      -2.30238322969930      3.28315871744814      1.19320437811935
  C       1.94589708073754      0.96459470250098      1.51227291456964
  O       2.25249072823285      1.34782643223025      2.52320159602515
  Br      1.18974099186748      1.00645862195449     -2.94611284064637
  O       1.79123982160380     -2.40534751322992     -0.91877595019370
  S       1.18413919919346     -2.97133161539825      0.38162168764083
  O      -0.41147961545909     -3.18203482352515     -0.04825888316346
  O       1.11132896034910     -1.69750169481740      1.25791969199592
  C      -0.91454184523827     -1.98335310857763     -0.64465818287189
  O      -2.08273696407242     -2.01611738635457     -0.93595805816502
