26
Coordinates from ORCA job orca
  Md     -0.03338239556519      1.06184658982777      0.29853893765193
  Br     -0.30321933345140      1.35694178125570      2.80205040279567
  C       4.77779667986659     -0.55842162899907     -0.22996245074114
  C       4.20488097987724     -0.51796404298649      1.04075279467853
  C       2.90218902526763     -0.05953895170138      1.17587685905571
  N       2.17312477795745      0.34392808048926      0.11276167891678
  C       2.73339396431735      0.30577876937048     -1.11585317125758
  C       4.02789674447297     -0.13717019504480     -1.33040892036152
  H       5.80347021488675     -0.91430854163856     -0.36438492470050
  H       4.76027955459212     -0.83762859526911      1.92554656296705
  H       2.42056577674455     -0.00591649340650      2.15753746116908
  H       2.12121318479454      0.64357913294973     -1.96293898309318
  H       4.44147303574412     -0.15199287709532     -2.34138124063235
  N       0.08007515563461      3.43973399515793      0.04213038038761
  H       0.21093989604375      3.85564266854599     -0.88767955971144
  H       0.85320774723295      3.80651638111195      0.61218679553581
  H      -0.75434167414172      3.89873871339526      0.42894806044996
  C      -1.28553425087060     -0.11191977177182     -2.21280872822192
  C      -2.49448859058799     -0.30108573512101     -1.33253568751242
  O      -2.13138235862983      0.20376188082609     -0.02159732277793
  H      -1.48074796287561     -0.47647498239514     -3.23363045695135
  H      -0.41500393574929     -0.70230138104205     -1.85822160993078
  H      -1.02373584721503      0.95968659704383     -2.33667308698688
  H      -2.76520561909981     -1.36389318346752     -1.24096357000639
  H      -3.36337719611340      0.26253216955370     -1.70464375112896
  H      -2.84008757313281      0.08392962041102      0.63265353040626
