32
Coordinates from ORCA job orca
  Th     -0.59826708099628      0.05464638283797      0.75666767994325
  C       2.76199949156864      0.59076327846517     -1.57679208551838
  P       2.18262231270004     -0.47517410735977     -0.21148633295632
  C       3.45593551420104     -0.28865182715794      1.08097394584766
  C       2.39371972217460     -2.17575016098490     -0.84307733638051
  H       3.76988691601720      0.28542977333166     -1.89999251929365
  H       2.79469273086337      1.64003487472223     -1.24651519654779
  H       2.06998207288500      0.51974692982812     -2.42946519995852
  H       4.45716340899032     -0.49700124232233      0.67177134371334
  H       3.24529760661842     -0.98477161895913      1.90688850656315
  H       3.42868955664770      0.73907776697187      1.47411042201451
  H       3.42686338572731     -2.33333202554693     -1.19146252414214
  H       1.70135300728257     -2.35264722024758     -1.68046040549877
  H       2.16348796776224     -2.89480964810526     -0.04239162419997
  N       0.60067766895886      2.68961226803020      0.35149693566626
  O      -0.02116807046855      2.07614718992281     -0.54239201183553
  O       0.74174895678834      1.99702406855367      1.39299392288627
  I       0.10923265911084     -2.16402254061961      2.59505380909077
  C      -4.23031692408302      3.24125072512385      2.64295246035976
  C      -3.25568520470583      2.32234535345620      2.11162081289842
  N      -2.47191261962858      1.58683557050628      1.68439772713093
  H      -4.95855608634137      3.50144681519836      1.85964034415746
  H      -3.72324889513011      4.15528822869946      2.98839143207385
  H      -4.75553938574446      2.77391941644679      3.49010405937145
  C      -2.18729388028561     -0.07835030379109     -3.12076530908270
  C      -1.67339390019870     -1.21293423030771     -2.26794922184962
  O      -1.28683363977027     -0.75556390004505     -0.98462790639760
  H      -2.47290268833069     -0.45209380059526     -4.11565546662921
  H      -1.41851990496290      0.69893460436367     -3.25311306182885
  H      -3.07716430279158      0.38504181404709     -2.66654340907231
  H      -0.79744349254948     -1.69474398026512     -2.73543315194769
  H      -2.44120690230909     -1.99269845419771     -2.13234063857741
