16
Coordinates from ORCA job orca
  Fm     -0.33111170443724      0.75643418836765      1.00174417988029
  C       2.72010064442761      0.82005795095456     -0.57315104628959
  O       1.56168149271389      0.82174433166585      0.13393835568196
  H       2.61126886275826      0.38419015967770     -1.59488552742996
  H       3.53051522030371      0.23181918082400     -0.08086309310687
  H       3.14201623573238      1.84209476320226     -0.72562777178850
  N      -0.12279706340693     -0.01829004613565      3.13289797942639
  N       0.02848696876930     -0.31561633904966      4.27311211153556
  N       0.17362177283489     -0.60934144185936      5.37868302180412
  C      -2.12604099078059     -1.53261416780824     -0.82540907056472
  O      -1.50417793865561     -0.54457873181116     -0.13190745409616
  H      -3.07199583442880     -1.19722937807118     -1.31407107733964
  H      -2.41135364174944     -2.40318404144293     -0.18819435293616
  H      -1.49864378496606     -1.95576680876274     -1.64588404486780
  O      -1.17079374628749      2.64250766686672      0.96447374696539
  H      -1.53077649282789      3.49747271338215      0.74114404312565
