26
Coordinates from ORCA job orca
  U       0.19562893004269     -0.09878225264649     -0.67435278743825
  O      -2.51016081351489      0.71557239890641     -3.34912659639513
  S      -1.05725857227826      0.96004237435199     -3.17314793831569
  O      -0.36766433030949     -0.46659033649147     -2.79232624441214
  O      -0.84544442727601      1.59989048083785     -1.70007708453852
  C      -4.45963889525169     -2.48144334838972      0.58700552942899
  C      -3.29712695488972     -2.77754820724025      1.29478189829268
  C      -2.09936356540936     -2.20318375038366      0.88210248060440
  N      -2.02606764135438     -1.37630554715974     -0.16715996376437
  C      -3.13852875148075     -1.09310967680061     -0.85772748627679
  C      -4.37725809373988     -1.62742370289820     -0.50817158560475
  H      -5.41855922825998     -2.91606984006446      0.88508300384529
  H      -3.30659134735309     -3.44903651517279      2.15611309955210
  H      -1.15350327234053     -2.42482874970288      1.38737461049509
  H      -3.03233194783029     -0.42316341662050     -1.72528486524281
  H      -5.25800164610698     -1.36839501430973     -1.10004421687179
  N      -0.16769697679735      0.70162268655679      1.43647139356358
  N      -0.35456979258025      1.22089587358548      2.49506747791412
  N      -0.53729090353981      1.71527008773020      3.51280832776680
  C       3.55924444677611      0.60068827895052     -0.92509597342568
  O       2.20572879119595      0.36678897536756     -0.86044430572625
  H       3.88579187133772      0.81832237760225     -1.96145791661868
  H       4.13526156138186     -0.27582568364935     -0.57128649725988
  H       3.85344733903479      1.46636364527939     -0.29877595388799
  C       1.01028571436653     -2.37764359230605      0.10760428214699
  N       1.28559095511377     -3.41357649559690      0.57509119154853
