17
Coordinates from ORCA job orca
  Lr      0.56378050400462     -0.49788444359480      0.49154822834206
  O       1.78411700371112      1.12571622804416     -0.52489016176618
  S       3.23840117481792      0.44829216386436     -0.39097717912338
  O       2.71897596394614     -0.93768944959456      0.21289163479691
  O       3.76631863890699      0.20928849295015     -1.76370888734569
  C       0.56620706371204      0.53715830777270      3.83527597389460
  N       0.60880903715019      0.08620442794957      2.74963349123363
  N      -0.48896657008958      1.81330479391214      0.63665905079583
  H      -0.57046800428253      2.09290100983179      1.61132678717278
  H      -1.30952441449006      2.10380742637186      0.11240894782130
  H       0.36482346528588      2.20106097659520      0.21854510011444
  N      -2.10287474376155     -0.53146208296830     -0.64920277795894
  O      -2.01127988366850     -0.69173434423633      0.58174839173878
  O      -1.02102206773678     -0.43432152100801     -1.29988359920288
  O      -3.17589538369413     -0.44445346178063     -1.21535440039420
  C      -0.05386014241981     -3.96387074489205      0.56312314151975
  N       0.17065835860804     -2.81071777921728      0.50525625836115
