34
Coordinates from ORCA job orca
  Lr     -1.08607189219380     -0.46385401862300      0.27172863745763
  C       1.86430457013294     -0.56463901151673      1.70189686260046
  C       2.09972815901757     -0.41847643068296      0.18889490596502
  O       3.21352861473659     -0.13380311657725     -0.23130902998607
  O       1.05867323008813     -0.63058158356312     -0.53277020749670
  N       0.54121593488655     -0.09501716413625      2.07815063362685
  H       2.69260285326933     -0.07215242759028      2.23996880376692
  H       1.90959399419194     -1.64537625898869      1.91336309712152
  H       0.49620639843335      0.91422385181587      2.21635917111143
  H       0.14642930919424     -0.55796536069623      2.89466789557133
  N      -1.17037026971557      1.86026832407069      0.55413503512183
  N      -1.32556717090343      2.69991703869969     -0.27221305153550
  N      -1.45512721560305      3.52739610909325     -1.07141115721332
  O      -0.35431098298704     -2.68619888040519      0.94875095435247
  H      -1.24413475513098     -3.07852508165773      1.32230525890682
  H      -0.15845479967323     -3.21468630785318      0.16688277411304
  C       0.70545404641647     -0.60942565097202     -3.74444048747092
  P      -0.15871375256736      0.74483794693470     -2.92001684236645
  O      -1.18391674084152      0.20962675672536     -1.92188651938423
  C      -1.05416413714258      1.70790751334631     -4.16004258506848
  C       1.13967336909298      1.84401054973638     -2.31788593060418
  H       1.37659601554933     -0.24265766746528     -4.53584968209166
  H      -0.03023485022858     -1.31150740217119     -4.16387045318209
  H       1.28833068015727     -1.10488102975968     -2.95108205005513
  H      -0.39358414313222      2.08155958204083     -4.95689601972922
  H      -1.50667127818281      2.55326798802095     -3.61527681515162
  H      -1.85386437174343      1.08556896580584     -4.58781493900188
  H       0.67168287874228      2.67053991892113     -1.76032977688266
  H       1.66110992309362      2.25964525937179     -3.19600586029871
  H       1.85191232038159      1.28101027233924     -1.69445080443149
  O      -2.37101633605683     -0.88701582437988      2.10276947410133
  S      -3.30517181863664     -1.97275787940073      1.42337868530323
  O      -2.94178026758628     -1.68436108739022     -0.09852189974557
  O      -2.65548751505883     -3.32129789309246      1.74322192257614
