35
Coordinates from ORCA job orca
  Cm     -0.65365735643295      0.64122691146857      1.19070165769690
  C       3.32881708463090      0.55083063689046     -1.57709607158714
  P       2.58299496703069     -0.42471692480826     -0.27656778038123
  O       1.19686734953932      0.20730098027534      0.11737485201178
  C       3.66232398698955     -0.43753562138292      1.15468114945800
  C       2.34159072083719     -2.10538617195132     -0.84579172720224
  H       4.30519069750030      0.12499212873382     -1.85743514931686
  H       3.47676636644623      1.58394416668838     -1.22718446431634
  H       2.67309647459894      0.55723438649124     -2.46103302034104
  H       4.63593653514320     -0.88211423664436      0.89413440564636
  H       3.20290513365052     -1.03307224747955      1.95912160311790
  H       3.82774729537962      0.59227152954671      1.50704836031639
  H       3.30843378854264     -2.55110035567223     -1.12863879440846
  H       1.67699205282019     -2.11130735631655     -1.72325482596626
  H       1.89242627021094     -2.70855362609540     -0.04160519482667
  C       0.65422973897781     -2.52638374513246      3.44178477742712
  C      -0.77095757384427     -2.07506141556371      3.22838104309592
  O      -0.83570688844849     -0.93868166011911      2.38573766665570
  H       0.68287251777717     -3.40275967345508      4.10671220296225
  H       1.25756732665553     -1.73242545912713      3.91178739973478
  H       1.12403898181333     -2.81895982091704      2.48796900226687
  H      -1.24776473853154     -1.81996335777842      4.18996024348713
  H      -1.37232796608983     -2.87937470041281      2.77222604398799
  C      -3.71578923520068      0.43745926339444     -2.25174945507247
  C      -3.27285497656416      1.22865276301957     -1.05438614552976
  O      -2.65859462318307      0.37121080561302     -0.04162870439238
  H      -4.16438934788795      1.11784584790808     -2.99166322806549
  H      -4.49020422350862     -0.29949862006184     -1.98362941282489
  H      -2.87455366904681     -0.08256333583609     -2.73371411446485
  H      -4.10766720606487      1.76520449781519     -0.57641863935360
  H      -2.49625131123369      1.96601227865087     -1.31514958326749
  H      -3.25907387697808     -0.36668513621954      0.15182848558391
  O      -0.49127984803972      2.31702161442518      2.94495583753125
  H      -0.65700001853046      2.09900351063939      3.87656736268702
  H      -0.28512442895898      3.26493214341362      2.93437421764979
