13
Coordinates from ORCA job orca
  Cm     -0.07184033467810      0.05527122745539      0.93631263794262
  C       2.35635418239125      0.48197866991630      0.27327975497276
  N       3.46533554323573      0.70929377823383     -0.02199752375749
  Cl     -0.17222176425202      2.51691784032115      1.93874572455597
  C      -2.46138850728527      1.62564838430734     -0.74125561867026
  O      -1.54050416491689      0.65435736193296     -0.47493807222913
  H      -2.30979573483156      2.53482168736458     -0.11692661194133
  H      -3.51001986291958      1.28609462486635     -0.56030490062408
  H      -2.43528272169957      1.95990727662077     -1.80642890031161
  S       0.47222314150610     -4.49790802668593     -1.65752034511170
  C       0.32938206503000     -3.10251498055891     -0.82790187729094
  N       0.22442219121271     -2.09094604448538     -0.22690776340095
  Br     -1.05956403279280     -1.21972179928843      3.28584349586615
