25
Coordinates from ORCA job orca
  Th     -0.10461125013222      0.67050067697953      0.66055526954154
  C       2.53618194681932     -0.63711258883957     -0.94739785152712
  C       3.77920044185873     -1.39266423514389     -0.54685908148524
  C       3.21066955168998     -2.58758274180012      0.21057000833553
  C       2.11159549375313     -1.97174860882684      1.04599081392570
  O       1.61474252280275     -0.83759973196326      0.21194546124209
  H       2.03854035198662     -1.07115716803115     -1.82860574277039
  H       2.67416735880110      0.44812029805097     -1.07959904362857
  H       4.42242352330092     -0.77427171813145      0.09933976091739
  H       4.36892650770474     -1.68423942515767     -1.42822327362660
  H       3.95754835667495     -3.08929639719065      0.84307512875669
  H       2.80029830241060     -3.33828135505774     -0.48322609554534
  H       2.48117350034224     -1.53242462307447      1.98512566061409
  H       1.25799210754326     -2.63758057852470      1.24092580806740
  N       0.02612704897420      1.06371804064099      2.73237508186690
  N       0.11973826673465      1.39527027707637      3.91395416436619
  N       0.20325963269992      1.68990617239085      4.99265511173593
  C      -5.03749832206407     -0.33137685567736      0.04466046303543
  C      -3.63189763516932     -0.09712778231301      0.19732065385228
  N      -2.49270762911147      0.09385820962362      0.32316766350185
  H      -5.54274373029220     -0.18300970720353      1.01423578192971
  H      -5.20503496099755     -1.36532522184834     -0.30165633200556
  H      -5.45048504733682      0.37484645256566     -0.69567312041297
  C       0.71713397378820      3.44007420878616     -1.15516821592281
  N       0.42501904841920      2.46621417756711     -0.52015842595429
