18
Coordinates from ORCA job orca
  Es      0.10833175821845     -0.07161417159474      0.65730623874653
  I       2.08654232120087      0.41627311845450      2.91320912683920
  I      -2.37589582414127      1.21186863808309      1.93328509930675
  N      -1.62046718045676     -2.30974668209280      0.29065101036371
  O      -0.86622291929684     -2.23911577698058      1.29635967451096
  O      -1.47793577369182     -1.39411393493412     -0.57161027295978
  O      -2.43792008517333     -3.18338841863065      0.15811770683265
  C       1.86316667957280      3.51314549911943     -0.17624438669274
  C       0.49249170719949      2.99684373285511     -0.59372842625861
  O       0.39429916761413      1.63803178232708     -0.46281784563404
  H       1.92509326877406      4.61424499500066     -0.25523295342810
  H       2.64851060218971      3.07026586257702     -0.81182209410094
  H       2.07608392576604      3.21370810295222      0.86348764728157
  H       0.30040525557219      3.30981141212289     -1.64778845701821
  H      -0.28548559444502      3.50701175099940      0.01870294314997
  S       1.95691141579740     -1.39592379224797     -1.00075942668853
  C       1.53686686042634     -3.01339414787514     -1.04418241741309
  N       1.29182441487353     -4.15660797013541     -1.12463316683731
