25
Coordinates from ORCA job orca
  Ac     -0.30447913002366      0.11449940980619     -0.74403822783698
  C       2.56832871670959      0.09337316971575     -1.41149102180732
  O       3.65219812172292     -0.10646702557455     -1.62747695403929
  O      -0.57060557356187      0.50502014075520     -2.86123128862131
  H      -0.61811590946549      0.47013870077268     -3.82054068789672
  C       1.61447738379209      5.05177315873337      0.59952000294849
  C       1.10326487815564      4.74310443272632     -0.65941752200953
  C       0.60163876721932      3.46569572995360     -0.87785776290206
  N       0.59046061882769      2.52147777898753      0.07705496871546
  C       1.08707367188794      2.82165580536801      1.28643638262345
  C       1.60738843809239      4.07295981504424      1.59180040107751
  H       2.01715555265879      6.04695145011014      0.80572018865389
  H       1.09201093943386      5.47884957395934     -1.46608718836632
  H       0.19665417485882      3.18260348199617     -1.85756635470187
  H       1.07175850283319      2.02898544259650      2.04373111581849
  H       2.00056596800789      4.27212633518346      2.59051494285171
  C      -2.68760076791151     -2.05035202759972      0.78455296252205
  O      -2.61862483388333     -0.79285274130684      0.09057176681211
  H      -3.20895347135815     -2.80176377074954      0.17351063372301
  H      -3.19471448261578     -1.92995906903992      1.75300947766430
  H      -1.65334733652893     -2.38487587648696      0.95159623605046
  H      -3.51148249995190     -0.50124248871501     -0.13725971931241
  S       2.30775113872036     -4.04643161997464      0.88870020855036
  C       1.47646006998728     -2.79475021193426      0.40695269451432
  N       0.83813706239281     -1.83631959432709      0.04599474496818
