23
Coordinates from ORCA job orca
  Ac     -0.21914421708552      0.16932833854304      1.10865588487425
  N       2.00576350844250     -0.88130066613656     -0.66549129549729
  O       2.87708749029891     -1.30414805019904     -1.35793937448520
  O       1.57607182956297      0.31263420425155     -0.76312462324213
  O       1.43731596105610     -1.59117614480055      0.22363730203673
  O       0.33246836648517      1.02083887246209      3.04740475100367
  H       0.56267664575556      1.38406598861609      3.90409283581504
  C      -0.12411010971259      2.70495048376981     -0.51313313373894
  O      -0.17411437132885      3.52778851680917     -1.27663065620304
  C      -7.25755935329630     -0.44815233481559     -0.14645093842309
  C      -6.54920429003630      0.62106593812164     -0.69713795019770
  C      -5.18181182084974      0.73819946743293     -0.46855473402529
  C      -4.52052375185467     -0.22072266498717      0.30646974551219
  C      -5.23124099540571     -1.29402649548536      0.85420495568029
  C      -6.60009749905640     -1.40374682029233      0.62975440601891
  C      -3.06126864424486     -0.09719612071319      0.55145041829070
  O      -2.43585390313633      0.91941514801936      0.11791431564871
  O      -2.45153365284345     -1.00565610955864      1.19514431938712
  H      -8.33282433497522     -0.53763295854933     -0.32432572588804
  H      -7.06836881923889      1.36560024976834     -1.30620415581832
  H      -4.60410948223306      1.56691936612193     -0.88431657686498
  H      -4.69064654415829     -2.02908768110057      1.45491780872627
  H      -7.15977201214475     -2.23796052727763      1.06056242139012
