32
Coordinates from ORCA job orca
  Np      0.24296248937866      0.28390936748846      0.41765294177997
  C       2.70809310335391     -1.68591246258672     -0.55230741761933
  C       1.77443297410583     -2.51132620469906      0.33119158615048
  O       1.97899518558536     -3.66739618410546      0.58477062263919
  O       0.77397750530953     -1.79181241863871      0.80384557879963
  N       1.98371852877997     -0.57022664371354     -1.15666051811547
  H       3.20269913070292     -2.34466992808057     -1.28279715533005
  H       3.48364381985088     -1.27622351987505      0.11533882869866
  H       1.53080899279657     -0.85096053925894     -2.02752050988300
  H       2.57455129245357      0.24081382347134     -1.34620111500156
  C      -1.27128056580498      0.52548510714836      4.95667022816020
  C      -0.73026858377395      0.80491427362762      3.70214951256451
  N      -0.65105740335274     -0.15289207134986      2.77295095163549
  C      -1.09100977326711     -1.37461038259223      3.08903360893183
  C      -1.62834648459187     -1.62650632529910      4.34998676318620
  N      -1.72191539311744     -0.68149003058592      5.27944469473319
  H      -1.33741818324546      1.31241377275788      5.71581274740196
  H      -0.35074754119613      1.79173837333750      3.41629756307886
  H      -0.99262048633394     -2.15166378606153      2.32629350258194
  H      -1.99026020014048     -2.62865306627072      4.60348828355210
  N      -1.92125812638379     -1.02341632188257     -0.94558055685649
  O      -1.99914477341605     -0.63790272058413      0.26140840857325
  O      -0.81169396309223     -0.75899081699102     -1.50598979078415
  O      -2.81201746961471     -1.57614674864706     -1.50761662954769
  N      -1.21944970694620      2.03514418130055     -0.72695593636239
  H      -0.45197580579595      2.62185841652358     -1.07100282521062
  H      -1.70747809923508      2.58805699452637     -0.02182378377267
  H      -1.86037717287924      1.83243072977481     -1.49303036343516
  O       0.36283802048023      2.45800324868039      1.50803070124113
  S       1.83596168201851      2.44108301077301      0.95258481808069
  O       1.56009968758200      2.19157760611884     -0.56562458434342
  O       2.21553731978940      0.94737126569348      1.37225984447260
