30
Coordinates from ORCA job orca
  Am     -0.07611814637222      0.95563379032044      0.41025219331337
  C       2.88762012914083      1.53184178144761     -1.31115706842030
  O       1.89517514956225      0.56544004439023     -0.98766033666702
  H       3.40060563068995      1.26275694887866     -2.24828131237511
  H       3.62235305512460      1.63083406897083     -0.49642925078449
  H       2.36051161151042      2.48835594296921     -1.42824185408188
  H       2.27994005277398     -0.26051074236936     -0.65832139013294
  C      -5.57453081091244     -0.39820642983662     -0.73901862599612
  O      -4.18555785923321     -0.43583540208584     -0.47294525507520
  P      -3.44934995613395      0.84662223937410      0.23391241706508
  O      -2.27707068212487      1.21514328954403     -0.89726559260598
  C      -2.52272537204835      2.34896259786759     -1.74134928624070
  O      -2.30204746901229     -0.03036660116877      1.08141219803595
  C      -2.70260130374338     -0.83178228023216      2.18823071249215
  H      -5.74755468815079     -0.31271782336379     -1.82330267628651
  H      -6.06652242989036      0.45119700434374     -0.23225734773677
  H      -6.02823872893460     -1.33423250521847     -0.38149350374172
  H      -1.59790290566876      2.94292428716271     -1.76766561810037
  H      -3.32766905576577      2.97242698572334     -1.31934795698575
  H      -2.80653567918564      1.99387671980325     -2.74318768151859
  H      -1.86962700318529     -1.50548905986674      2.42963584025080
  H      -3.57709330578310     -1.44211741263398      1.91456750851496
  H      -2.93289456297333     -0.19911835796148      3.05992703874169
  N       0.72059420813009     -1.10272385274431      1.06952584616793
  N       0.53679454150488     -2.13330675999087      1.65670218573615
  N       0.36645220378047     -3.11395290438176      2.22130522719821
  O       0.85061519718288      2.54116576697714      1.75245192830695
  S      -0.10453505047237      3.58123095868868      1.01198972421488
  O       0.17153449790925      3.09676514502217     -0.49047310588576
  O      -1.48332126771863      2.94388256037031      1.27878504259708
