30
Coordinates from ORCA job orca
  Ac     -1.03548704743080     -1.01833820930071      0.27140488709733
  N      -0.67892456697269      1.71520952821328      0.68475707569138
  H       0.24750434182279      2.04124452755528      0.96717963083657
  H      -1.30083886493473      1.95281479686687      1.46115160763010
  H      -0.98898124326070      2.29037579490762     -0.10629649960893
  C       2.54870893580368     -1.30242214251473     -0.32483525278906
  O       1.54319924186994     -0.54235961297494      0.32373859015142
  H       3.37150262724093     -0.65496042790621     -0.67085518855914
  H       2.08986361514786     -1.79149599494632     -1.19598851309009
  H       2.95550206588128     -2.08270680499435      0.33871456510092
  H       1.88312979843136     -0.13931268670862      1.16126842850237
  N      -0.61322278864735     -3.13931711014621     -0.78607489160848
  N      -0.31116307328162     -4.15767156353988     -1.34836851195228
  N      -0.02116210611176     -5.12224080574120     -1.88768997612128
  N      -0.48652789803827     -0.68494118229584      2.75155714770134
  N       0.54471215983396     -0.10679074288493      2.86441306118677
  N       1.56160072477532      0.45367620824967      2.89915390939291
  N      -2.97206137031228      0.13934793571712     -0.74558759710287
  N      -2.85858021551134      1.19915719047112     -1.29024974897075
  N      -2.71093435231572      2.21893643332039     -1.80364760256208
  C       0.58693450628461      1.45821904917060     -3.75635222013800
  C       0.48798227720402      0.95340593455459     -2.45981672466484
  N      -0.25406482450399     -0.12179069030544     -2.19771389475603
  C      -0.89339160635569     -0.69543969670083     -3.21938808626167
  C      -0.78611594339786     -0.17781241830745     -4.50954700288927
  N      -0.04797370183136      0.89449196224075     -4.77626457465963
  H       1.19603137584485      2.34485615739523     -3.96322230828300
  H       1.01950014806336      1.41393323668107     -1.62109352042232
  H      -1.49925512373773     -1.58178521856898     -3.00216269020217
  H      -1.31538709156005     -0.65208344750696     -5.34288409864912
