29
Coordinates from ORCA job orca
  Np      0.61466095027409      0.01666345755059     -0.51750182488373
  O       2.06150857256762     -1.41518553052085     -0.47284791937535
  H       2.90494671902748     -1.86519120825095     -0.59158768041397
  N      -1.62591810550853      1.15892177348527      0.03836166641873
  H      -1.44951696780228      1.95438116187056      0.65721953655482
  H      -2.36399173551528      0.59901932555573      0.46956571127128
  H      -2.02049436054004      1.55328011996351     -0.81890899692408
  I       1.92004511853187      2.49553353306180      0.27335099964275
  O      -1.04268199838891     -1.87770113533917     -0.38341589149840
  H      -1.42918558408871     -2.14503302358945     -1.23020746760438
  H      -0.70632344398905     -2.69389183342534      0.01381296041213
  C      -0.43577420695374      0.64241605504294      3.48417705614835
  P       0.56445998750493     -0.47012551867268      2.43099911770295
  C       0.04424151914217     -2.14437457006355      2.96723600214499
  C       2.25164659627577     -0.31564055366278      3.11111414163872
  H      -0.28580366777440      0.41380454534335      4.55162558621581
  H      -1.50649165448604      0.53151761572618      3.25147947118834
  H      -0.13465941556856      1.68523323895615      3.29827800795497
  H       0.14324788346288     -2.26082281666460      4.05853291830837
  H       0.68062024934169     -2.90000817600422      2.47950241042556
  H      -1.00647271402687     -2.32604228871225      2.69115810311284
  H       2.26789874900610     -0.56419947076010      4.18430260247893
  H       2.60648044328667      0.71526773769082      2.96339552505209
  H       2.92808714192200     -0.99196831279074      2.56734426184245
  C       0.13192050433980      0.54820704351237     -3.83102738404696
  O       0.10201327889375      0.24589369779836     -2.46176148901167
  H       0.40266524639254      1.60525187554079     -3.98601456040761
  H      -0.86003786278694      0.37064670691864     -4.27825215293180
  H       0.86880875745996     -0.08495344956036     -4.35153071141622
