29
Coordinates from ORCA job orca
  Cf      0.23208472466425      0.18893022280856     -0.06435746735309
  C       1.55268764376053     -2.85517542757378     -0.73319070386268
  C       1.93408591431500     -1.91981054850640     -1.89139383185467
  O       2.57542746938755     -2.37023232925761     -2.82773296578925
  O       1.47475481917793     -0.72642568551227     -1.76827239142997
  N       1.17974040512781     -2.11755423792133      0.46111474779799
  H       2.36545117247932     -3.58755243921486     -0.57965101998164
  H       0.66426835503530     -3.40644783211997     -1.08504565105047
  H       1.96286808689417     -1.93847247275488      1.08880711148171
  H       0.46156757340244     -2.58047081216339      1.01700397851983
  C      -3.07548235399970     -0.57913444403152      2.94183799196837
  C      -3.92876903245734     -1.36264340028737      3.81352828759543
  N      -4.61369761767167     -1.98744993041944      4.51115839327195
  H      -2.04616326386734     -0.53288546826010      3.33597652118086
  H      -3.46759154701596      0.44677642176941      2.83655537396324
  H      -3.02877860053788     -1.03285115339433      1.93609133503854
  I      -2.12880332783545     -1.80182787441376     -0.88092906500739
  C       0.48992344053220     -0.18949143402129      2.43364588004480
  N       0.56420409421108     -0.60160606528280      3.52714703284665
  S      -3.74131254062897      3.05004717957182      1.56939232044997
  C      -2.44267850260590      2.26841395273634      0.98657788041482
  N      -1.50199548810119      1.68919659847604      0.56592250030938
  S       3.60611495197115      4.05692050395934     -0.34326196929167
  C       2.57716951424551      2.81462404507288     -0.19669273998838
  N       1.82439941282006      1.90667794104671     -0.09480107602318
  N      -0.48613045832440      1.20085471912244     -2.26112912148186
  H      -0.56889060334402      2.21311780811009     -2.31221421365259
  H      -1.37570739783562      0.76511139297195     -2.50465853409129
  H       0.23995315620129      0.86106076948958     -2.89212860402557
