37
Coordinates from ORCA job orca
  Am      0.49046072135152      0.72217230178502      0.82357178467477
  C       4.95806862532709      1.84168193311027     -0.93595782665845
  O       3.74865010396684      1.32226374482473     -0.34251780035608
  P       3.63270553778215     -0.14320141554927      0.31698983679936
  O       2.74219186205824      0.29660449148083      1.70491262119533
  C       3.50327513480128      0.70312538701275      2.86487957736688
  O       2.12574834259617     -0.57938893507582     -0.36123110732677
  C       2.13437257221176     -1.02049872954244     -1.73793382999879
  H       4.74927972847754      2.07255290068447     -1.98842436935230
  H       5.77754156536316      1.10957451313245     -0.86817183551250
  H       5.23214235552373      2.76015075731312     -0.40156482072960
  H       2.84972324789791      0.61145947208233      3.74191009139873
  H       3.84511039581806      1.74206483598374      2.74749020174124
  H       4.36437153702279      0.03074985308035      2.99875719576482
  H       3.01092913616209     -1.66309626124196     -1.91280181056408
  H       2.14680095496149     -0.14987051774225     -2.40886741299001
  H       1.22552257004519     -1.61424406421440     -1.89708038437365
  C      -4.12847140474200     -0.43148751060207      1.23546663176442
  P      -2.91104603591881     -0.43212811266377     -0.07442833557375
  O      -1.48436587735420     -0.14230148135742      0.54046334384933
  C      -2.89191871948185     -2.03220163886782     -0.87610959950630
  C      -3.30267371444014      0.84037508152424     -1.27216306335799
  H      -5.12755772379568     -0.63939685564256      0.82036426049040
  H      -4.14652198487251      0.55216547451328      1.72916009140253
  H      -3.88015027887551     -1.20773959811208      1.97544871607615
  H      -3.88973878658467     -2.25894023506452     -1.28442363692873
  H      -2.62026094575748     -2.80995122623755     -0.14594213543609
  H      -2.16363257182231     -2.03008629128394     -1.70138669539806
  H      -4.27153934988681      0.62579091403679     -1.75086620460161
  H      -2.51885032312739      0.87792785859888     -2.04504126710572
  H      -3.36681976829761      1.81869405549197     -0.77093151856625
  C       0.08603557690014      2.18605382543750      3.17774304703347
  O      -0.07380205680470      2.85340000004872      4.06164728556686
  N       0.53203961974566      2.85567823489826     -0.93273219640217
  O       0.61190572811709      2.97989486623041      0.34458285832222
  O       0.35445610232027      1.63325892579350     -1.29597615182682
  O       0.61281812331144      3.75139344613418     -1.68313554088078
