41
Coordinates from ORCA job orca
  Md     -0.64411611325896      0.63611201375953      0.33391382927098
  C      -2.14389980665775     -1.63254403145162      3.40695792611318
  C      -1.56325169454945     -0.25342017827606      3.61327149103639
  O      -0.57879498029138      0.06809629908113      2.63619884480131
  H      -2.89799411093405     -1.84784274846031      4.18011912819509
  H      -1.36532517371791     -2.41147623831377      3.46863746002372
  H      -2.62953249238100     -1.69656862091555      2.42143949090121
  H      -1.11360058665645     -0.14665490929865      4.61572220287294
  H      -2.34376362324419      0.51198363134058      3.50530613736398
  H       0.22792073188062     -0.47135919926454      2.71539343552195
  Br      1.73768840335832     -0.77139962383714      0.69861183528199
  C       1.03580016021525      0.32698031731278     -5.32118059742050
  O       1.13280331790865     -0.32340958792792     -4.06698621151481
  P      -0.06137095891394     -0.68215008197904     -3.03276722157254
  O      -1.32085904023727     -0.36334557437322     -4.03717182509823
  C      -2.64371808708939     -0.66246168754166     -3.61364822212466
  O      -0.11364442508519      0.69368721353164     -2.05039801901451
  C      -0.14674684327225      2.00724901617737     -2.62120683868655
  H       1.94775132593440      0.07785179197334     -5.88134130665657
  H       0.97926984344330      1.42097147164996     -5.20221860509624
  H       0.15164285383201     -0.01451981715845     -5.87911032869961
  H      -3.28190236530871     -0.64826559336875     -4.50800035964990
  H      -3.00175604423291      0.08101121038194     -2.88297391262868
  H      -2.69986423126732     -1.66520245142970     -3.15373984182395
  H      -0.89361461712740      2.04908062424559     -3.42795876243493
  H       0.85349284854033      2.26301068917984     -3.00276945393856
  H      -0.41994473014321      2.70254635989524     -1.81629681813898
  C       0.81368124707994      3.62127773831697      0.77667347178258
  O       0.00210275426728      2.53758329838519      0.53208712228720
  H       1.06137698729740      4.16930838151907     -0.15624141506236
  H       1.77353168649546      3.32083634337409      1.24106128512238
  H       0.32925992603680      4.34582691977804      1.46029688659770
  C      -0.05952131965118     -3.73257069588021     -0.66121542243780
  C      -0.95707271686577     -2.64267413352075     -0.36080816853089
  N      -1.63158821301333     -1.73224434582130     -0.12098580914373
  H      -0.40566580385366     -4.66587899415778     -0.19462328865047
  H       0.93049826740239     -3.44825773319329     -0.26541177725745
  H       0.01173515164107     -3.85607672179368     -1.75201035512906
  N      -3.46646675365885      1.11531480442176      0.08772020256360
  O      -2.89106030249025      0.88854464493071      1.16922839359826
  O      -2.67988047143112      1.14865019870878     -0.88307458262336
