23
Coordinates from ORCA job orca
  Bk      0.21637415512849      0.75587289682059      0.89999305029823
  N       1.87865098627525      0.13110129973447     -1.19660616621517
  O       2.59483023751233     -0.16521581713320     -2.07759764690324
  O       1.04741351256030     -0.69273442501044     -0.65469236922831
  O       1.83743400197140      1.30213359193086     -0.67357513269322
  C      -6.88701322475569     -0.46056879625554      0.46177802700541
  C      -6.76358419198985      0.35291446906160      1.59139960876461
  C      -5.51987616697729      0.85180051390318      1.94823131294160
  C      -4.38852476132117      0.53748145400849      1.17336961118375
  C      -4.52233055657034     -0.28005814562962      0.03789861554852
  C      -5.76952023643831     -0.77660636183091     -0.31321195675897
  C      -3.06343292793056      1.03762475403015      1.50992376701901
  O      -2.05909850790766      0.79189541290904      0.81326273537212
  O      -2.86143526877233      1.77780797947963      2.56977010998185
  H      -7.86891557878607     -0.85202181343103      0.18345960700755
  H      -7.64233461578272      0.59678676916970      2.19207898668970
  H      -5.46004867841184      1.49067742392053      2.83672393647739
  H      -3.63901076836148     -0.51717791737469     -0.55845627690480
  H      -5.87505672960026     -1.41306369950521     -1.19453258122232
  H      -3.66728792465118      1.91583245260877      3.09120533276750
  Cl      0.93527431787155      0.05657155595738      3.12515055172256
  C       1.25738746398266      3.04086231475651      1.80110618712525
  O       1.79750546295511      3.90318408787966      2.26862069002087
