25
Coordinates from ORCA job orca
  Md     -0.22221413389873      0.40539688943175     -0.46284607106009
  C       0.81091803001779     -3.15070463727750      1.07059195103807
  C       0.15143429902933     -2.11802576985237      0.18456879285004
  O       0.82351435559350     -1.66538909566854     -0.78476077427227
  O      -0.95921789866267     -1.61275602051054      0.49973730072737
  N       2.06916389882736     -2.55741523508472      1.50559170613621
  H       0.91982753717795     -4.09768853632516      0.50466403702593
  H       0.16019062219076     -3.33756350022265      1.93584768138914
  H       2.68188896948265     -2.45469487111339      0.69558029552200
  H       2.54546851397359     -3.15933155513623      2.17425838228830
  N      -1.32064710753422      2.01798093638192      0.61130901113212
  N      -1.05731322290907      2.57531828360435      1.64332573525121
  N      -0.81585057696655      3.10158709938897      2.63092579399298
  N       1.26840653430613      0.41553131132665      1.51830111855188
  H       2.08070890411795      0.98557357689572      1.27339087936015
  H       1.62278354601798     -0.53135229687368      1.74595279458352
  H       0.87508387894004      0.81956400566691      2.37138612124620
  N       1.45722396805744      1.60129264081612     -2.34687078483022
  O       1.80468871471907      1.41434335982762     -1.14002352553308
  O       0.26915606586333      1.23251850990378     -2.61358253682147
  O       2.18015559718595      2.08039211635781     -3.16139430824857
  N      -2.34828981811518      0.34996464308532     -1.72539854537816
  H      -2.88665643412668      1.11375468664053     -1.31049780760762
  H      -2.90466303727968     -0.50069129174128     -1.63732306578622
  H      -2.23466120600815      0.55529475047864     -2.71883418155745
