41
Coordinates from ORCA job orca
  Cm      0.12895716523859     -0.24376675159092     -0.64772082682174
  N       2.41785743125270     -0.45082977667822      0.41996786133971
  C       2.38045005956307     -0.37910996581672      1.89064972405181
  C       1.43040984950011      0.71769034886256      2.32312255879732
  N       0.07787819127084      0.41342309902766      1.82332092482516
  H       2.87132276699292     -1.31929659159879      0.12700591406200
  H       3.01151349022430      0.31433331986327      0.06553186531154
  H       3.38097337089247     -0.19542123948264      2.31651085907467
  H       2.02818934018350     -1.34878542308938      2.28252650185756
  H       1.75659292388976      1.68355563788039      1.89838723428394
  H       1.45027646791831      0.81772004224956      3.42148685981255
  H      -0.57670162234991      1.16224383111662      2.06344718999670
  H      -0.27786687916222     -0.42142095962826      2.31460130766358
  C       0.43160751414729     -2.39721123258779     -3.50238888081997
  O       0.50358561797769     -1.11406502504933     -2.87492978631990
  H       1.41600307152459     -2.68851845328591     -3.89729618368752
  H      -0.30897473285597     -2.38748577262996     -4.31640351805220
  H       0.12699196202384     -3.11103512122450     -2.72615711279404
  H       0.85643000114653     -0.43947013037175     -3.47471137958858
  S       3.44327902261955      2.72001938613166     -0.78946467618541
  C       2.11516855836140      2.06280643652275     -1.38008056623530
  N       1.12598333852154      1.50502870272793     -1.77036475514913
  C      -4.05874460935088     -1.56823797360401      2.17862150538164
  O      -4.18652538444633     -0.68027018702772      1.06951444923065
  P      -3.18846464330828      0.58086842544396      0.85822086507181
  O      -4.14774280335022      1.51972953597218     -0.04983237842563
  C      -5.31836610017790      2.10775532151707      0.50762422411912
  O      -2.26826642039090      0.03677824433470     -0.47699188439831
  C      -2.95819979133374     -0.45989856676897     -1.64402962034902
  H      -5.06958723316257     -1.89687111473870      2.45331998081182
  H      -3.59414313959965     -1.06715118668386      3.04426945202998
  H      -3.44675315164359     -2.44080361907322      1.90527566125644
  H      -5.73480442364532      2.77473231010609     -0.25727974571164
  H      -5.08104087402413      2.70150331217391      1.40643599402034
  H      -6.05854792690591      1.33287952436436      0.76013604203456
  H      -2.21834028193961     -0.98176211936034     -2.27242016782507
  H      -3.40239757713483      0.37846985355747     -2.19589764528658
  H      -3.73536099963212     -1.17224802017402     -1.33396495449284
  S      -0.55277182524691     -3.03914691456582      2.56437012483519
  C      -0.22821271171931     -2.76880892143418      1.01709088280637
  N       0.02534298813148     -2.50112226538708     -0.12240390053165
