27
Coordinates from ORCA job orca
  Pu     -0.32862351223653      0.64077891458121      0.65885511138767
  N       1.68453105596053     -0.73892900914797     -0.51138364325396
  O       2.53718179213434     -1.31138580205418     -1.02720705951164
  O       1.24058052253905     -0.93478699308299      0.70001952934903
  O       0.98333071703569      0.23937935930455     -1.04199269385176
  C      -5.62055750454576     -0.24431171083067     -0.19814789048607
  O      -4.16867103540225     -0.01921591640840     -0.00139392938358
  P      -3.00493775380569     -0.25722305421619     -1.01087844802386
  O      -2.01682715174292      1.20925687734300     -0.67273913329570
  C      -2.29375801113432      2.42376930625596     -1.45923865941839
  O      -1.79229311730202     -0.95151613289550      0.11701187515167
  C      -1.83943040152082     -2.40966906302744      0.33914222616864
  H      -5.92486132311114     -0.96677148221300      0.56807682788277
  H      -5.81080417737322     -0.62556614953174     -1.21074040392875
  H      -6.10521030704807      0.72531594331497     -0.03463940684229
  H      -1.49583096509272      3.15128285284708     -1.24819377348708
  H      -3.26503672591322      2.82880179310755     -1.14164638082101
  H      -2.28158091897435      2.16287013410107     -2.52817434068009
  H      -0.91510031012897     -2.69607302326509      0.85911501061908
  H      -1.89194856269831     -2.91346431210535     -0.63782298582313
  H      -2.71694099101877     -2.63410254045996      0.96235321527370
  C      -0.21277683773114     -0.42414713818330      3.19694420307478
  O      -0.13664175460197     -0.90373794690947      4.20107426032372
  N       0.98337862725471      2.56158017736356      1.46774290321549
  H       0.47426965980691      3.28333962530385      2.00302056704486
  H       1.45736928370759      3.08657855295176      0.71490114741421
  H       1.75518970294357      2.28154673785667      2.09504187190170
