28
Coordinates from ORCA job orca
  Cf     -0.14848910511487     -0.29152965818044     -0.21873295944994
  C       1.97382333530236     -4.20768729361195     -1.04085454986987
  C       1.88908095659963     -2.77302532539914     -0.64276092506026
  C       3.05453184503210     -2.01438250377297     -0.44853831320628
  C       3.06551843673053     -0.66962599061720     -0.05403469666379
  O       2.00046355822158      0.01800793587801      0.15085592264760
  C       4.35836969700721      0.04418037574171      0.16078840554504
  O       0.71178049357382     -2.29325841628982     -0.49108364945883
  H       3.00651546039107     -4.56665916516511     -1.12512703578474
  H       1.46032293251042     -4.33991719483720     -2.00718073962401
  H       1.42702981315440     -4.82080957167547     -0.30691275601227
  H       4.01465355383593     -2.50925054439770     -0.59475190519085
  H       5.23248780652290     -0.59267160060993     -0.02049764083109
  H       4.39343992186359      0.42743109307752      1.19327573049268
  H       4.40072502569971      0.92160018485753     -0.50464348615217
  N      -0.17510374222002      1.68452098532258      1.33152494629937
  H      -1.07633983718988      2.01653187122551      1.68129165964783
  H       0.23766453082866      2.47444262891045      0.82694921571060
  H       0.42325281465346      1.54841744034095      2.14995999795579
  N      -0.83027128415115      0.52201439770133     -2.07350647016158
  N      -1.08183358585922      0.90301880759559     -3.19142749778364
  N      -1.32873044278198      1.26613715534160     -4.23759376077208
  C      -4.48182169573089     -2.01138102033172      1.72563399532863
  C      -3.22198483305179     -1.45675249831442      1.29213085561818
  N      -2.21455391352940     -1.01346244226043      0.93863984300010
  H      -4.52269651550476     -3.07960713029578      1.46364811659009
  H      -5.30966596878240     -1.48483470470012      1.22698606873431
  H      -4.58396925801107     -1.90124781553332      2.81566162845118
