22
Coordinates from ORCA job orca
  Th      0.13660121889101     -0.46290311666931     -0.21707268428926
  N      -2.43744109290454      0.74859523014870     -0.39897663192859
  O      -3.48551423688253      1.24219912960825     -0.48385998443743
  O      -1.39355310856835      1.12295299835237     -1.07202624351229
  O      -2.15381513945184     -0.24729358245670      0.37859922131222
  C      -0.70366914404355      0.34741596061023      3.18044932662647
  O       0.23991720464876     -0.00576856782692      2.11652610443764
  H      -0.63310831709612     -0.40535186935537      3.97643757754294
  H      -1.70557144186457      0.33772666577015      2.73693703816077
  H      -0.45253920682311      1.34749451690021      3.55760815234525
  H       1.14139944894678     -0.07408486234189      2.48337233795686
  N       2.37404801970994     -1.47549917241585     -0.46949047455120
  O       3.38521464968248     -2.01529825240783     -0.68906259200461
  O       2.25876145405216     -0.64341889719467      0.55638538438280
  N      -0.59031687815852     -2.76936630152050     -1.10791281286877
  H      -0.40564739722274     -2.92630508873666     -2.10811090157329
  H      -1.59711817246502     -2.95114894412585     -0.99607610339878
  H      -0.12808072709383     -3.56538280035695     -0.64792189232432
  N       1.25971736013044      1.15436235467096     -1.85716202328328
  H       1.94701391263576      0.75110957146397     -2.50687943012714
  H       1.78193444049208      1.89807514659445     -1.37423962779984
  H       0.57976715338531      1.65348988128925     -2.44532374066616
