20
Coordinates from ORCA job orca
  Pa     -0.75238735037575      0.85245993368687      0.69142869679922
  C       1.84093928031124     -0.63092579572809      2.97725451555811
  C       2.46144216517737     -1.24348424901874      1.80238618696540
  O       3.00620984264360     -1.76183766052311      0.98340280637891
  O       0.22273556723949     -0.56813392679176      0.27547012144309
  N       1.11479784747819      0.62717476604869      2.73836448272685
  H       2.68368688472078     -0.53742544473653      3.70279221417782
  H       1.17949333539933     -1.42555054603216      3.38492958266896
  H       1.80452792087689      1.38675635442534      2.63104124754680
  H       0.67313857100490      0.85374946394259      3.64325873406296
  C      -5.29334508102099     -0.59190360921448     -0.57965048983870
  C      -3.98471202759231     -0.19563653564115     -0.18575892112468
  N      -2.91115137768900      0.13459107890859      0.13857994306570
  H      -6.04135371277268     -0.12487821077660      0.08950976050863
  H      -5.38336104298576     -1.69346739678820     -0.52567492325489
  H      -5.48048923750282     -0.26133276097389     -1.61996631633453
  N      -0.86835774041658      3.47481807831788     -0.08965586453062
  O      -0.98036466288143      4.57886780277312     -0.38326497705937
  O      -0.25593657778530      2.54520181393257     -0.75077871994989
  O      -1.36971260382873      2.93615684418880      1.02733192018970
