29
Coordinates from ORCA job orca
  Pu     -1.05415270026772     -0.14713087537811      0.17022363911891
  F       0.89274878624023      3.16948261069092      3.23103072006950
  P       0.39566706287909      2.88296975736471      1.73264924400670
  F      -0.79479034708403      3.93444803462212      1.75094805554048
  F      -0.48149197250973      1.56213856289486      2.18554810343937
  C       0.50092829537035     -1.57778407250539     -4.08668975901772
  C       0.10073614869164     -1.42024421905452     -2.76362402837336
  N      -0.48357530116690     -0.28854979741799     -2.34986302850940
  C      -0.69661861984833      0.66766293604122     -3.25830195210911
  C      -0.29884890157744      0.47725259284626     -4.58590976979468
  N       0.30622673401167     -0.62886158354158     -4.99888721005601
  H       0.98850820004791     -2.50378999158468     -4.41108423630809
  H       0.22190273352902     -2.21593730813897     -2.02193864108546
  H      -1.21022422998051      1.58209838438589     -2.92858400984253
  H      -0.48437466823339      1.26281593855651     -5.32631951860361
  O      -1.45229676007077     -2.09879772025294     -0.30767269172866
  H      -2.04700452919151     -2.84262124414324     -0.17037370868202
  N       1.42690338479730      0.32476690922649     -0.22305177725353
  H       1.46412218211762      1.27958428338688     -0.58735670650671
  H       1.92062671624957     -0.27913063811684     -0.88095760459836
  H       1.94670308844247      0.29374457355952      0.65591535109201
  N      -0.59422509239693     -1.25105969765855      2.73700096034923
  O      -0.42192928517500     -1.74249969635002      3.80444836937029
  O      -1.73048275526707     -0.85481988959499      2.33271682840638
  O       0.34633897127866     -1.07407105652807      1.89839963319990
  O      -2.45819773149415      2.80453590958682     -1.99783583443943
  S      -2.33112928212614      2.48130440026367     -0.56552950661943
  O      -2.83230277542487      0.93366970137655     -0.35691428513662
  O      -0.76126735184100      2.09232319546345     -0.30578663592789
