26
Coordinates from ORCA job orca
  Lr     -0.27978887879700     -0.35019626476259     -0.19567191314194
  N       0.05407373827687      0.20801799077626      2.11881704658799
  C       1.40022374619604     -0.16679870593613      2.53221555208046
  C       2.38837669997177      0.52604842811961      1.60189920508442
  N       2.05696224669299      0.31046905914290      0.19623205513196
  H       0.00071148299868      1.26072078847240      1.99250228158320
  H      -0.66453678730992     -0.11395425674409      2.76366917463362
  H       1.51068138798190     -1.26505222996080      2.46794407121817
  H       1.62699073227623      0.13148923918135      3.57611053175662
  H       3.41875711426262      0.21227100576464      1.85115070655154
  H       2.30649193687427      1.61272142640363      1.77359183233729
  H       2.65355837428069     -0.38217391071828     -0.25016628066226
  H       2.12165266334684      1.24787568994215     -0.28995958214299
  O      -0.46563320619488      1.82535384545697     -0.82310709749832
  S       0.31949999832867      3.08590350833919     -0.13640523234440
  O       1.76496428339988      2.85578787321103     -0.57965199582864
  O       0.20617262944339      2.77842734865484      1.36343478160357
  O       0.28616707069649      0.16599147134124     -2.51920737041838
  H      -0.51180619816194     -0.08636773649947     -3.00074346396676
  H       0.06764141756172      1.07872880924602     -2.13172664534786
  N      -3.06064963530862     -0.84900125561736     -0.45246338512650
  O      -4.24033128958729     -1.06634829029550     -0.53425779553548
  O      -2.49508839154928     -0.63855425765559      0.65996995929028
  O      -2.31015211156836     -0.82210329318654     -1.46592935705453
  O       0.38359204790549     -2.31212042173706     -0.17886260618725
  H       0.57956892798270     -3.21673586093884     -0.41028447260388
