25
Coordinates from ORCA job orca
  Lr     -0.15480295274425      0.47054704982495      0.66620442279320
  C       0.15146221185161     -1.24303719206186      2.65442475471404
  O       0.24989516197366     -1.96417522589550      3.49902477181376
  O       1.76701383298036      0.37858615034063     -0.52219586152806
  H       1.86596473368382      0.07037211794622     -1.44681732436515
  H       2.67394108049652      0.63772947720708     -0.25696930321417
  C      -5.32129862178214      0.23007986397509     -0.00702790251915
  O      -3.85140594205425      0.27755421949202      0.11712379398633
  P      -2.81797397730642     -0.00353905191870     -1.03649248556979
  O      -1.64378165112582     -0.95367564175808     -0.10659026245117
  C      -1.93182095606837     -2.39428433084033      0.00232380513511
  O      -1.67203349112097      1.30492330219724     -0.68300752975599
  C      -1.96709075425376      2.61243341182761     -1.29669893437931
  H      -5.69369358009517      1.22356241058045      0.26894843451108
  H      -5.67374063298967     -0.52727724082549      0.70292468663802
  H      -5.61063550064834     -0.02798715301642     -1.03572709143767
  H      -0.99505443153500     -2.90710542279345      0.25675845351908
  H      -2.28109134015387     -2.75705537473944     -0.97607459023952
  H      -2.69375824956300     -2.55013307925511      0.77828926788472
  H      -1.09738761439196      3.26217864472431     -1.13312501292437
  H      -2.86005188844191      3.03773199293185     -0.81807418459045
  H      -2.12123831572700      2.46898541128644     -2.37618201041535
  O      -0.37721090026907      2.07989539893538      2.26443416564803
  H      -1.20988936065108      2.51213724153217      2.54249050832792
  H       0.30828313993633      2.48845302030287      2.83163542841881
