20
Coordinates from ORCA job orca
  U       0.89429831411914      0.05161721824723     -0.51627242938226
  N      -1.66379152431117      0.80084915434191      0.39993668269085
  O      -2.72985899037475      1.11993119148425      0.76572240024970
  O      -1.37384137153102     -0.37886290256941     -0.02867314904265
  O      -0.64404666281788      1.57767833449789      0.38185074360038
  C       0.09101853591793     -0.60877402534781      2.91037020949471
  O       1.00872536844521     -0.57278764006314      1.79854250804855
  H       0.16224856163095      0.32335253640720      3.48834023423011
  H       0.32041336938243     -1.47437696010463      3.54689739441729
  H      -0.91841267715093     -0.73010197440055      2.49889562332242
  H       1.91746103438309     -0.74959852956887      2.09263540092918
  N       0.29942847990032     -2.27032173980110     -1.15749441519038
  H       0.44270364194824     -2.98421429931366     -0.43826444050155
  H       0.85394230548208     -2.56279592870777     -1.96824124440213
  H      -0.68352280069651     -2.33647320410376     -1.44052920721074
  N       1.02735210172466      0.99205176272289     -3.14133966411651
  O       1.12930353590654      1.38478165789759     -4.23731371928185
  O       0.65738788599448     -0.19999116233497     -2.82754998219316
  O       1.27220036665537      1.69635791577121     -2.09255157245307
  I       3.65369052539180     -0.79202140505446     -0.37266137320884
