23
Coordinates from ORCA job orca
  Am     -0.83775640840018     -0.92368302838582     -0.31442319811774
  N       1.36891636451575     -1.98966204326009     -1.08646858537267
  C       2.44348610922130     -1.87397631450503     -0.09029957000945
  C       2.33591794303350     -0.55676406111071      0.65059080812640
  N       1.02592152528499     -0.45188226229053      1.31928308061459
  H       1.32755739602764     -2.94435572053653     -1.44963530243432
  H       1.57349377158049     -1.38885318489546     -1.89179737563612
  H       3.44559786338690     -1.95605299438346     -0.54472254364061
  H       2.34819984796293     -2.71294057326269      0.61965313731149
  H       2.41964967987155      0.28231652192519     -0.06048354936578
  H       3.17177636763643     -0.46311917764090      1.36420312684689
  H       0.91479632755902      0.47913938734448      1.72775425116132
  H       0.98513508741839     -1.10097803498660      2.11111977849532
  S      -0.11851135147282      3.30297082244601     -2.34154489176201
  C      -0.11766265956653      1.73397424463541     -2.10488478565369
  N      -0.11856111589743      0.54756333097700     -1.90697587888313
  F      -1.74058411840097     -2.49558560881271      0.61092673272721
  C      -2.67195951097550      3.63889261441595      0.55284731582867
  C      -2.16047081141404      2.29176436927279      0.60735686659578
  N      -1.74599597536595      1.21124926125188      0.62978364517691
  H      -2.45490787697895      4.16384900867880      1.49504079243415
  H      -3.76022994535874      3.61558831783082      0.39061084912546
  H      -2.18300850966782      4.15754512529218     -0.28743470356867
