21
Coordinates from ORCA job orca
  U      -0.03779948310427     -0.33990704340554     -0.80517766627204
  N       1.95470415135548     -1.90055626058619     -1.20017026751919
  C       2.93349024958096     -1.80017995853944     -0.08492811247615
  C       2.20766333196499     -1.76191165189598      1.24175331571537
  N       1.28646179793923     -0.59406345962274      1.28975664431941
  H       1.56922686850464     -2.85415269185377     -1.22320645179442
  H       2.44907592614692     -1.80882657653645     -2.09613704226845
  H       3.53091031238432     -0.88423770542876     -0.23279578284273
  H       3.64231146919886     -2.64391183903035     -0.10268469818346
  H       2.93243635228646     -1.72850872755965      2.07073358287507
  H       1.60388015745795     -2.67400042505738      1.37996433582775
  H       1.82588029302096      0.25454575949461      1.50621042057606
  H       0.65359680789797     -0.69525189975830      2.09319507037815
  C      -1.99021814122192      2.02092327235138      0.60201744272255
  O      -1.06484992444533      1.10838916612525     -0.00021210941269
  H      -2.34946588584957      2.71649999637232     -0.16874808296344
  H      -1.47256844629294      2.57518976635907      1.39670239944250
  H      -2.82875786419340      1.44551767134022      1.01893144525471
  C      -1.81627882228538     -0.11969245692813     -2.82431856470048
  O      -2.63436551626942     -0.08793942956548     -3.58698472819276
  I      -1.72343363407655     -2.51292550627464     -0.27360115048577
