17
Coordinates from ORCA job orca
  Pa      0.17691635999708     -0.24040335836212     -0.33160635427598
  N       2.01811141120299      0.49022216326995      1.09753102336791
  H       2.13625907330772     -0.01701278759277      1.99842775855715
  H       2.01004624366814      1.49154522192775      1.38150492066645
  H       2.95185649089681      0.38098441128483      0.65016109777169
  O       0.40579348706872      0.94990861096493     -2.30267747589449
  H      -0.18579225563343      1.64407308987852     -2.69629435459365
  H       1.12153284680914      0.84635029060815     -2.98396431440619
  C      -4.10117892531875     -2.41200039769916     -0.04726768627334
  C      -2.86584841642981     -1.76075829132244     -0.09631230505374
  N      -1.81241202309128     -1.20705293162072     -0.13873772853379
  H      -4.93685772398893     -1.66781910348620     -0.05303769581470
  H      -4.17605916495964     -3.03137581997181      0.88176573967650
  H      -4.21997155197412     -3.08374435461931     -0.93498115949089
  C      -1.01503556245392      1.07431323625407      1.72153667906199
  O      -1.52595507118721      1.59591913793221      2.56174813789432
  I       1.46509478208657     -2.59744911744580     -0.70659628265925
