31
Coordinates from ORCA job orca
  Pu      0.26132561019941     -1.04369432517051     -0.16618949765730
  N      -0.16028833354506      1.65466480946311      0.09161495445839
  O      -0.30886139825627      2.80330827100012      0.22536622494744
  O      -0.27157455045791      1.02536411226668     -1.02582176077818
  O       0.15707112121726      0.84530964478551      1.05262486021229
  O       0.81594749885457     -2.01992188463748      1.45440149902826
  H       1.13982522953540     -2.48273152693747      2.24172053656131
  C       4.13835041288710     -1.13998853822882     -1.09755138098062
  P       2.99101232135776     -0.03932559999301     -0.21583781972785
  C       3.61009914304425      0.16815910919773      1.47452836965685
  C       3.08033893377002      1.58486148410117     -1.02734732093098
  H       5.15349151554023     -0.70889949276667     -1.04956230296819
  H       3.85513314981920     -1.23667211344305     -2.15725030025969
  H       4.16258773737036     -2.13675105996845     -0.63088301766911
  H       4.61112486058963      0.63054016307453      1.43991671154588
  H       3.68555970441349     -0.80860308728498      1.97451700969644
  H       2.93114214468527      0.81901086462284      2.04644410141983
  H       4.13520541106289      1.90733007337339     -1.06342126812003
  H       2.51368618178257      2.33546597385093     -0.45483920114696
  H       2.69048165489422      1.53912170103150     -2.05557517832668
  C      -4.59421533387258     -2.62537157722553     -0.18164035223124
  C      -3.74381504063592     -3.15758805586333      0.78865242220888
  C      -2.42455918437194     -2.73475886193979      0.83030367652343
  N      -1.94947083314392     -1.82589533917874     -0.04679593163746
  C      -2.77135964923008     -1.30472230252569     -0.98339559076741
  C      -4.10064840298451     -1.68098775015054     -1.08416542646107
  H      -5.63960280253267     -2.94335144651782     -0.23366523416723
  H      -4.09846429187087     -3.89549282532333      1.51196155601465
  H      -1.72270524282155     -3.11976821270453      1.57475501968145
  H      -2.35173105620651     -0.55155798856512     -1.66481450241533
  H      -4.73638651109393     -1.23785421834270     -1.85415085570972
