10
Coordinates from ORCA job orca
  Fm     -0.34574858012490      0.69025302855322      0.95891219114476
  N       1.77038565693626      0.03654693051942      0.00007695592090
  H       1.73313880067230     -0.75479705240214     -0.64492564604583
  H       2.44340385808220     -0.19834449163724      0.73370770291120
  H       2.14798703665820      0.83536420705546     -0.51837649125933
  O      -1.56632700979959     -0.42174783045365     -0.15579336767676
  H      -2.25716896378661     -0.90274394620039     -0.61209904240436
  I       0.40186280741239     -0.06230925953021      3.63632544823280
  C      -0.00457217052308      2.84823204501181      0.05335863042715
  N       0.51923856447283      3.73034636908370     -0.50338638125054
