25
Coordinates from ORCA job orca
  Pu      0.49762405323236      0.08612641833209      0.15408795391130
  C       3.02059738796121     -2.07990363368173     -0.12726692823626
  C       1.92717617546174     -2.42972096106345     -1.11436434406150
  O       1.90999835713402     -3.29202955562537     -1.91234144746918
  O       0.84872617770155     -1.56026635050579     -0.92929564179816
  N       2.87035341506818     -0.67715703081871      0.32630303848032
  H       4.00530617572651     -2.28024400809746     -0.57641059838872
  H       2.91321385930023     -2.76187881756802      0.73360444078569
  H       3.49101400285908     -0.07628726622894     -0.22921663579188
  H       3.21327361206751     -0.58535701933399      1.28873205387351
  Cl      0.30415843182200     -0.17985708408328      2.55753895915245
  C       0.83506323986516      5.15918192205485     -0.53797520282326
  C       0.55178141171379      4.27772967649655     -1.58462664170183
  C       0.47249231766155      2.92450736937447     -1.30086396403562
  N       0.66041221812568      2.43915283739496     -0.05436256718354
  C       0.92687764572103      3.29009253265792      0.96010402168643
  C       1.02523002036699      4.65758313496458      0.75098656607861
  H       0.90340336791098      6.23458116975872     -0.72782518010306
  H       0.39408290040307      4.63386486130798     -2.60546973842820
  H       0.24792867724335      2.20400974521823     -2.10113529847008
  H       1.05418897681353      2.85603110182318      1.95759369542800
  H       1.24430603654474      5.32022190254990      1.59176063122292
  O      -1.86082660308021     -0.02300154018577     -0.11285739075609
  H      -2.51461070995662      0.27105731919519      0.54543371410759
  H      -2.34177114766749     -0.59323672393617     -0.73883349547943
