20
Coordinates from ORCA job orca
  Th     -0.09538322913104      0.20554316846316      0.12161063423889
  C       3.31589040700258      1.14389778362612      0.23868051014735
  O       2.36084484338394      0.06599374303574      0.00055748023700
  H       3.95203788141269      1.27129847851156     -0.64750580546576
  H       3.91915198167466      0.90832811726312      1.12584058199767
  H       2.73679956409235      2.05908531371971      0.42099700908325
  H       2.85451024630945     -0.76097552784599     -0.13019553601688
  N      -2.15517944714776      1.22459534793355     -1.13389273136546
  H      -2.60056878993608      1.94863470995554     -0.55551596093467
  H      -2.90663101557852      0.54992017185696     -1.32534828025126
  H      -1.99019195121675      1.68651146318725     -2.03668147453414
  O      -0.21719690055761      1.65808923326161      1.54910001735452
  H      -0.30744768065276      2.26521947606155      2.29746487659243
  C      -1.26601865889622     -2.73880773971761      1.45897170838224
  O      -0.78958802243001     -1.55465766491827      0.81688238457056
  H      -2.31471951101740     -2.59415917768513      1.75240562749543
  H      -0.65598948485376     -2.93754776206413      2.35092452957267
  H      -1.18770505933700     -3.58195007309774      0.75899753631386
  C       0.24483822613720     -1.39351462907466     -3.46236712194446
  O       0.12804660074200     -0.84900443247235     -2.46462598547324
