33
Coordinates from ORCA job orca
  Pu     -0.94009126804935      0.24660701049351     -0.92429527183437
  S      -2.94175416421320     -0.68400126142692      1.02306027486747
  C      -2.87312317545843      0.86828683143268      0.56748750503335
  N      -2.44485370355310      1.81410671187281     -0.02754258375649
  C       1.64420322927252      3.83246571006145     -1.24830727726359
  C       1.78849835749660      2.42032964491660     -0.75912660873986
  O       0.51619085651825      1.91505915268450     -0.22075133871570
  H       2.61417864900089      4.17731728739332     -1.63889672713946
  H       1.36539186167676      4.52093031773309     -0.43390680995544
  H       0.90484506915775      3.91449463362290     -2.05924622271078
  H       2.53467761353413      2.32746309127206      0.04522806563515
  H       2.04970123709474      1.71839630170262     -1.56448640695015
  H       0.16158777838455      2.56398932357403      0.41300140397058
  C       1.88994783071214     -1.39111683948722      0.69679828935651
  O       0.54829502528990     -1.25951971066622      0.15791888983368
  P      -0.48233140043439     -2.47548355772213     -0.38512415573959
  O      -1.07341485185426     -3.24033958206101      0.86261924958931
  C      -0.42507004713452     -4.20372669032491      1.72519820330350
  O       0.61723774515514     -3.40413488862869     -1.07050360734464
  C       0.31705092206967     -4.58206558332877     -1.85246734262879
  H       2.33859089907136     -0.39060196944811      0.68796674600349
  H       2.46276909209565     -2.07900848690046      0.06129075071687
  H       1.82193140532689     -1.76208035111494      1.72844526809721
  H      -1.11888661312022     -5.04468179561672      1.84594299458108
  H      -0.25127233664649     -3.72520115031202      2.69851935150606
  H       0.52159945374872     -4.54885783347930      1.28602780840006
  H       1.28209979736401     -5.05639929847279     -2.06473034887213
  H      -0.16893131030701     -4.29503675275285     -2.79604707538521
  H      -0.32124172580247     -5.27409021914470     -1.28411245854496
  O      -0.16163608525451      0.19215145869867     -2.74627787425524
  H       0.10097140528282      0.24764717159253     -3.67812969292947
  C      -3.09753074664211     -0.56408433693731     -2.20873902658048
  O      -4.00773079978248     -0.91971433922559     -2.75401397154788
