26
Coordinates from ORCA job orca
  Th      0.39595006326226     -0.04662297640873      0.05924183305179
  I       3.31072619546332     -0.42334701968193     -0.28030994980644
  C      -1.43654350141739      0.72687768861100     -2.81570837421370
  N      -0.82047169290663      0.45490174851757     -1.83670048266327
  C       1.16999798217902      5.17714379898870      0.19131129869236
  C       0.72785159061785      4.53767269333897      1.34833111567752
  C       0.51739779253491      3.16699290798584      1.31257977816121
  N       0.72486500819302      2.44183232325682      0.19978220600052
  C       1.14980368169948      3.05930108836647     -0.91653769007432
  C       1.38554961380106      4.42491970809659     -0.96225796544038
  H       1.34453765311590      6.25631090773590      0.18817239548616
  H       0.54585515338564      5.09203181960892      2.27106899747072
  H       0.17019865574286      2.62099129018517      2.19457690851224
  H       1.29909773118749      2.43587221834176     -1.80565624785959
  H       1.72982104849113      4.88643872520460     -1.88972662691621
  C      -2.04145122191498     -2.53316811950317     -0.32089666319002
  C      -0.80294386921537     -3.32339660920942     -0.64732791024166
  O       0.34346994584033     -2.45624618749870     -0.45823857164839
  H      -2.93396921436509     -3.16388581540533     -0.44541204753217
  H      -2.16491723478737     -1.67498794792904     -1.00421343757903
  H      -2.03713112371326     -2.18931459933608      0.72790424853911
  H      -0.80557240606567     -3.66601603601774     -1.69371866536974
  H      -0.68649164187506     -4.19391695880664      0.01663673537236
  H       1.17872735463405     -2.90755959118266     -0.65960470006670
  O      -0.45306394968017     -0.05544390460908      1.95033527725097
  H      -0.86779361420737     -0.12158115264990      2.81646853838668
