23
Coordinates from ORCA job orca
  Bk     -0.55335772056067     -0.39814818503818      0.01835919606192
  N       1.50783241079845     -0.58697761376757      1.42307048696793
  C       2.64412683291140     -1.15027366064508      0.66334323552485
  C       2.17750908971034     -2.26357388638602     -0.25291378704144
  N       1.17547195786843     -1.76107137839357     -1.20917547934891
  H       1.81473586321328      0.24245573436372      1.93744011299243
  H       1.21694601309186     -1.25443305948661      2.14786571132909
  H       3.43259352553239     -1.52916592110241      1.33426219659755
  H       3.09345947602121     -0.33616659587843      0.06995575623730
  H       1.70783528870786     -3.06802525644179      0.33904069714521
  H       3.04946146979223     -2.70909264351701     -0.76021312328972
  H       0.76421342691373     -2.54505876441392     -1.72414074413222
  H       1.62361917725482     -1.17986362475475     -1.92499586757211
  C      -1.02464878246620      2.90285986195114      0.08356082512011
  C      -0.84533310525985      2.42986078316511     -1.36320976607985
  O      -0.81498362895705      3.20531182147037     -2.27027371808932
  O      -0.67750708377969      1.11547605729227     -1.45786246819253
  N      -1.33656784489038      1.79149318303961      1.00560536619487
  H      -1.77968817376641      3.70383225120394      0.10645808501265
  H      -0.06999579688804      3.36372747384833      0.38609366854504
  H      -2.35253519938991      1.64906268680878      1.03161270453193
  H      -1.10534946557680      2.05286474390264      1.96693793320613
  I      -2.22993773028103     -2.27269400722057      1.41087897827911
