21
Coordinates from ORCA job orca
  Bk      0.43978481522407      0.54655559340697      0.42740748036947
  O       0.49895875957233      0.20821584789350      2.39646896542184
  H       0.64727589336976      0.31036632911691      3.34063258726668
  N       2.53620089954363     -0.68738814734955     -0.26964171953530
  H       2.52244153471055     -1.70779749121721     -0.35187202253281
  H       3.24792094009232     -0.48353778120009      0.43992266450205
  H       2.93144541761611     -0.33851182128962     -1.14839613780373
  I       1.29192855576830      3.18632572474261     -0.19765244231433
  C      -2.81337205116191      0.53452626222824      1.18347091478017
  C      -3.70433262264831      1.75064473275984      1.10028370181785
  C      -3.85390682782215      1.92429558113292     -0.40823494761637
  C      -2.47279510767319      1.57358791774649     -0.93938409341564
  O      -1.87155711771899      0.72327525948772      0.08900743684478
  H      -3.36545661725526     -0.40331802219527      1.00586608908777
  H      -2.22743245985005      0.44324261681666      2.11021639763466
  H      -3.20445570000342      2.62262799672822      1.55343979021369
  H      -4.66391695219375      1.60153949035925      1.61525842642745
  H      -4.15422192796304      2.94099922784677     -0.69820367673177
  H      -4.60927439912668      1.22650454012780     -0.80206978384572
  H      -1.82102319972448      2.45543672409246     -1.05163590153794
  H      -2.49401183275580      1.01020941876531     -1.88418372903280
