28
Coordinates from ORCA job orca
  Bk      0.33679521269082     -0.13428457340581     -0.42796477803264
  N       1.30164766831013      2.20320646096898     -0.18459425366710
  C       0.51320920167302      2.99287337361621      0.76383521479609
  C      -0.96013827029283      2.88606948509545      0.42158861398395
  N      -1.45548474565549      1.50131515756533      0.51620433145098
  C      -1.90848850532473      1.08518911231561      1.85629368674375
  C      -1.00411263655357      0.03554287260122      2.47617511263738
  N      -0.89553465113984     -1.12545883898097      1.58332558630395
  H       2.25586162134621      2.06173216384767      0.15698410503043
  H       1.37425081388191      2.68719432321509     -1.08218863517785
  H       0.80902306238650      4.05645125743881      0.78169149230593
  H       0.70223054774343      2.60304674865196      1.77881085174352
  H      -1.11233151815652      3.22444361181570     -0.61693579627506
  H      -1.54811578914661      3.56350815402130      1.06716335897273
  H      -2.23311499732943      1.41112573165041     -0.13622613457557
  H      -2.93153433128865      0.67864024641788      1.77723611493612
  H      -1.97807099012458      1.95500231837240      2.53188604432320
  H      -1.38321742291825     -0.23274747286279      3.47821548464373
  H       0.01592602071222      0.43475846964319      2.62204905747729
  H      -1.79105005094071     -1.61489378685218      1.52042708705775
  H      -0.22771396719726     -1.79531532363016      1.97395556428569
  N       0.75101272693529     -2.57832701475468     -1.06041842584587
  H       1.16566950145721     -2.58461622992163     -1.99560218341928
  H      -0.00286714902462     -3.26743544722489     -1.09029499337467
  H       1.47432213024903     -2.93947110787447     -0.43269893683459
  Br      2.68327057425969     -0.60774249152255      0.94171054594543
  O      -0.29338840242278      0.17201867280606     -2.35514194712512
  H      -0.45475565412961      0.24797412698685     -3.29718616831019
