36
Coordinates from ORCA job orca
  Lr     -0.46851735768085     -0.19505284389125      0.53355985374083
  C       3.31415861355563     -1.95265153343926     -1.25823659473883
  C       2.81113805608248     -1.49670491236233      0.08331220464107
  O       1.76142475471556     -0.48965661519880     -0.05111125317876
  H       2.51385239404976     -2.39087242445243     -1.87554650979758
  H       4.09288801888114     -2.71794709406093     -1.11766285514347
  H       3.77509722720037     -1.12606821013468     -1.82279788420227
  H       3.61309767941148     -1.06261709647326      0.70061199226151
  H       2.35228981523247     -2.31226094749631      0.66162926154997
  H       2.11335173934880      0.25586922516371     -0.56497885750190
  N      -0.16497022698823      0.40330385221265      2.84252183419569
  H      -0.91026454457854      1.03132675262558      3.16552188155713
  H       0.69829595923219      0.94198840020290      2.98115232966615
  H      -0.12669896189715     -0.35003285221454      3.53818970876791
  C      -0.61368935085706      2.88545627204790     -0.79045006470162
  O      -0.55088141596214      1.60566431817680     -0.21715931871971
  H       0.36223733584602      3.17094749408532     -1.21513138783430
  H      -0.89280029131413      3.63480012299532     -0.03231901950025
  H      -1.36073401666393      2.91063261089606     -1.60055396708843
  F      -1.98097520289295     -3.79590697724985     -0.37918575365991
  P      -0.45756287966667     -3.51574474608232     -0.64313364155706
  F      -0.14039657904078     -2.83626600008346      0.82733336574484
  F      -0.66865615493550     -1.99558061951081     -1.26380870828960
  C      -4.31218487793254     -1.77241152534003      0.96284816839333
  P      -3.31466236960797     -0.36626942360050      0.37245101420504
  C      -4.03115576190542      1.09709545101227      1.19828200718818
  C      -3.75727355905442     -0.16552999471086     -1.38700976822226
  H      -5.37968725850217     -1.57900387277757      0.77057721257423
  H      -4.17004025778908     -1.91813585747019      2.04455235344407
  H      -4.02002682561267     -2.69532785092793      0.44162987846192
  H      -5.10364885676597      1.17832628189986      0.95813179719904
  H      -3.52223470380934      2.01206048616417      0.85802527501734
  H      -3.92955278768246      1.01270678366425      2.29150796915637
  H      -4.84753510026782     -0.04652416173449     -1.49407774057362
  H      -3.44013176006458     -1.04761834322761     -1.96402522744737
  H      -3.25995049208339      0.72550585129265     -1.80084955560769
