30
Coordinates from ORCA job orca
  Np     -0.85203481756549      0.27851295925600      0.01025483633112
  N       0.63945458004233      0.76021190833158     -2.01260026446914
  C       1.40419400107363     -0.39932105690386     -2.48131018968823
  C       0.51302483723649     -1.62546596399746     -2.50793222608251
  N      -0.03759512916924     -1.87857625928307     -1.17042727633330
  H       0.03700164444030      1.12162746405547     -2.75530362794712
  H       1.24806048831925      1.53117540287835     -1.73020591135208
  H       2.24182688617312     -0.56800752116137     -1.78490751383651
  H       1.84171699543223     -0.23516795925855     -3.48185926409575
  H       1.08682456047156     -2.48806393872960     -2.88920290089834
  H      -0.33210789593951     -1.45680593692392     -3.19372361995095
  H       0.67413112437200     -2.33601485690493     -0.58924095579760
  H      -0.82406452308811     -2.52655849176368     -1.23618955778962
  N      -3.12446515442834      0.45461044780408     -1.74042786071999
  O      -3.00113389737791      1.12703264561220     -0.67297380954685
  O      -2.13183844257167     -0.31151794841147     -1.98517842126352
  O      -4.07028775212156      0.52700512144802     -2.45350315398619
  C       0.02829122880490      3.60932168617429      0.16955555846522
  N      -0.34214245931648      2.49277620334297      0.29169378970731
  S       3.15080837911403     -2.15916188078455      0.62137345178275
  C       2.06730544012844     -1.00337504582036      0.83895245077439
  N       1.21234981590807     -0.17507853526812      0.92853923610487
  C      -1.22568896558153     -0.08977387052142      3.81448081899569
  C      -2.08817620582831     -0.92119971038052      2.88816458705747
  O      -1.76302866823336     -0.69647571449136      1.54232505492247
  H      -1.47769715081026     -0.29257843589968      4.86697791092616
  H      -1.37608367948203      0.98681323409034      3.63095252211035
  H      -0.15902875986382     -0.31789688490104      3.66144517117302
  H      -3.15839825192447     -0.68858307445436      3.03645115589325
  H      -1.95771822821414     -1.99766398713390      3.10272000951365
