12
Coordinates from ORCA job orca
  Pa     -0.32066377048880      1.12657593249922     -0.21171330389647
  S       4.59793113855914      0.93244291907068      0.17343564983444
  C       3.04998329224450      0.97957298228003      0.04039252169482
  N       1.83412166515684      1.01174586705584     -0.05246064538328
  O      -0.00289257625232     -0.30085784027064      1.75170073181592
  H       0.87629268228061     -0.46428712950617      2.12530968111860
  H      -0.66171664331623     -0.65090841456690      2.36912009998979
  O      -4.49454688037327     -0.77981455895811      1.54411238933504
  S      -4.00955601716985      0.19643490237141      0.60510786935075
  O      -0.88882695316728      0.47815252501267     -1.77812387324012
  O      -2.54187319664234      0.44047097263684      0.66367728052691
  I      -0.66175274083097      3.67287184237511      1.10244159885355
