21
Coordinates from ORCA job orca
  Lr      1.05610003285441      0.37152616384923     -0.25142837679194
  F       0.63818448627689      2.44927108420260      0.26288621639397
  C      -0.57053368066744     -2.48720800482482      0.14261062725037
  O      -0.10311514013913     -1.39538918971074     -0.50073688596860
  H      -0.08951782928443     -3.44658612262795     -0.18828519407847
  H      -1.67180981476771     -2.65928289694743     -0.00996859214639
  H      -0.42863949692103     -2.44680696794268      1.25132957566410
  F       3.05150703648596     -0.06033552957347      0.01026101106249
  N       0.70298829932112     -0.04965227212983      2.03967274838130
  N       1.07514761545031      0.02633187596151      3.16216089925247
  N       1.40863523023379      0.08223820485098      4.27170202861140
  I       1.55278611869608      0.97945166486682     -3.31551406896297
  C      -2.33109855626728      1.23511172228500      1.47955882749434
  C      -2.45526690648906      1.03048593214302     -0.01844761050067
  O      -1.34684689956318      1.46155388478532     -0.74253332022334
  H      -3.23355737093184      0.86667864716292      1.99916326274374
  H      -2.20711099296469      2.30456246574507      1.72380636453137
  H      -1.44769179208906      0.69797050313912      1.86769466304220
  H      -3.37607001837290      1.54403040055866     -0.38479014797457
  H      -2.58782443133275     -0.04716849560343     -0.22954719154438
  H      -0.77276588952804      2.12011692981009     -0.25409483623646
