25
Coordinates from ORCA job orca
  Bk      0.17900662592910     -0.71574460393952     -0.28473902735624
  N       0.60332087655142      1.97096605738700      0.88221931656839
  O       0.83136847920781      3.09865202379946      1.26428428475016
  O       1.41073281509470      1.36190200276645      0.12179788177093
  O      -0.43494728616667      1.35425066569603      1.20085218804290
  C      -2.33412453603703      3.68837028436969     -2.43332512886903
  C      -2.94630227643793      2.91166817126976     -1.45285883846919
  C      -2.28688098047064      1.77277728341522     -0.99580227800909
  N      -1.09728868237024      1.39321484418779     -1.46450578297491
  C      -0.50646285098197      2.13613852015270     -2.39937451717330
  C      -1.08990778019912      3.29428753094441     -2.91513562131842
  H      -2.82278006148354      4.59056162286332     -2.81622182027872
  H      -3.92247704182853      3.17609869116659     -1.03871539882717
  H      -2.73178359627808      1.12244413655966     -0.23579244407919
  H       0.45726134513726      1.75445571720101     -2.75859881927627
  H      -0.56634757886607      3.86909513336182     -3.68333427411672
  N       2.31771700233402     -2.62968172740164     -0.11362139858182
  O       2.49947061730710     -1.40252990334383      0.10275166337581
  O       1.15104089219006     -2.97024366460991     -0.43408928518938
  O       3.21634681061602     -3.43382707263991     -0.01849302890984
  N       0.01017290984658     -1.43370986834937      1.90323802074157
  N      -0.23438130770027     -1.41833177197057      3.06287220094554
  N      -0.46279020817848     -1.42516234531491      4.19594517539895
  I      -2.69773264930986     -1.84262531692340     -0.86490982148521
  Br      1.14646846209437     -0.74372641064795     -3.02104324667963
