32
Coordinates from ORCA job orca
  Th     -0.20076145643503     -0.47085926619859      0.27132335921552
  C      -2.34180520182679      0.36327745236082     -2.27419870115636
  C      -2.28996968470555      1.55371682392029     -1.31326640790655
  O      -2.86937070175025      2.57908940478664     -1.56323221827001
  O      -1.53029619067764      1.33703838991078     -0.26605164497902
  N      -2.02275261481276     -0.89315873709093     -1.59602379672164
  H      -1.56518303798440      0.55187384311427     -3.03390682948726
  H      -3.31665528317417      0.35862743529440     -2.78787123924639
  H      -1.73492697858192     -1.61410691351324     -2.25732655865308
  H      -2.83792883816421     -1.25761990781369     -1.10034351537154
  C       2.64610133157911     -4.11560856597153     -0.93928563086122
  C       1.37343995627993     -3.44524461398499     -0.82796646301945
  N       0.38156095304242     -2.86004371156704     -0.70385152469047
  H       2.51881417569947     -5.20593603843947     -0.88261031514612
  H       3.26444327448332     -3.75661338555025     -0.09713820215011
  H       3.11886492678731     -3.82643528506238     -1.88975482013988
  O      -1.55334280206839     -1.49467865367714      1.53417365515776
  H      -2.08335094327802     -2.02927946231412      2.12732787775082
  C       2.27578355901099      2.86604464569881      0.52879258334028
  C       1.58106836405779      2.32251819630887      1.75392268381916
  O       0.34921358984372      1.67879290831092      1.42101706812159
  H       3.23655722693881      3.32438581901315      0.80920364269022
  H       1.66756429135893      3.63763318419306      0.02858122355461
  H       2.47530298894571      2.06021508417371     -0.19594939094284
  H       1.37190299283805      3.11547284961434      2.49207439755339
  H       2.18628186698462      1.54732570633628      2.24444450195972
  H      -0.28523474661992      2.27374443592364      0.97735743809220
  C       2.76371975435694     -1.71658420970888      1.50646538030495
  N       1.86558038158973     -0.95011530246458      1.48140051628534
  N       1.07093523825004     -0.16627381980989     -1.68934230213550
  N       1.81617757186238     -0.80103247256621     -2.38299288167214
  N       2.51716603616955     -1.42386583322690     -3.03867188529573
