24
Coordinates from ORCA job orca
  Th      0.92603320284926      1.18577969983980      0.33082504254272
  F       2.44958227513783     -1.78261449062466     -1.48925886147301
  P       3.84015404412123     -1.21069288817705     -0.98907301782668
  F       3.10063914816530      0.09859074804516     -0.17232780418920
  F       4.21829820258663     -0.35737367574388     -2.25352965478850
  F       1.86099887773802      2.76551099261233      1.24753765655178
  C      -3.86556314126634      1.68232487295695     -1.85118973986888
  O      -2.81530792371897      2.14648942536411     -0.99731260064402
  P      -2.12296237958599      1.18750156763006      0.08260194970407
  O      -1.10006934974548      2.38991551292731      0.75074491092451
  C      -1.53754958458193      3.72572302380248      1.10363886314452
  O      -3.30312958351119      1.04881369352978      1.15787601458781
  C      -3.38829662696521      0.00781135196507      2.13807087004807
  H      -4.08900709418250      2.50350354772879     -2.54230815724027
  H      -4.76166087031100      1.44319154251874     -1.25943605996497
  H      -3.54301216617074      0.80161226651629     -2.42905253404982
  H      -0.67836411810274      4.22978211642899      1.56265854686116
  H      -2.36725112988033      3.64331020437460      1.81828154340467
  H      -1.86034817452356      4.24201830254593      0.19059229794670
  H      -4.45550075586146     -0.15416439167517      2.33396059746710
  H      -2.88784956855813      0.32585380323545      3.06412581879560
  H      -2.93152870990984     -0.92460575707443      1.77276739343711
  Br      0.59416889159951      1.37268785273768     -2.35441224789140
  I       0.46732653467795     -1.07726932146466      2.17011917252088
