22
Coordinates from ORCA job orca
  Cf     -0.16896312834285      1.67850171166686      1.72441544166455
  Cl      0.97047842390325      1.23678225733072      3.92113308079718
  C       1.78959390227931      0.24218242033877     -0.62663406181332
  O       0.75262385147469      0.71372035230167      0.15563384241597
  H       1.48777940023082     -0.65507986888646     -1.20680805998350
  H       2.66894996890301     -0.04978033970167     -0.02117760638947
  H       2.12975579202323      1.00012480695777     -1.35865761980808
  Br     -0.89404984692554      4.16214239239524      0.96481080129667
  C      -4.35552930138280     -0.22864255911347      0.01940605224907
  P      -2.57834391572791      0.03759733565637     -0.05787719750090
  O      -2.07205389616164      0.56774520706910      1.29882455106137
  C      -1.77863564238680     -1.52273238830720     -0.45330961444604
  C      -2.23074021892553      1.18923631209729     -1.39253391363753
  H      -4.57822811171118     -0.92669843448742      0.84008336714607
  H      -4.73513905513754     -0.63883945838347     -0.92853583988232
  H      -4.84975788793196      0.73181297952330      0.22920527359138
  H      -2.10715380027537     -1.91299695111378     -1.42808997226976
  H      -2.00134056133674     -2.25493731117932      0.33722741388124
  H      -0.69496616264093     -1.32433646286696     -0.46612124063672
  H      -2.65885788854056      0.83981251487321     -2.34436946269071
  H      -1.13460925943160      1.27346693184828     -1.47303663666062
  H      -2.63461266195530      2.17971855198116     -1.12908859838452
