21
Coordinates from ORCA job orca
  Es      0.57905782753276      1.17524348636588      1.14680540858255
  O       1.02401248097756      0.01657187106983     -0.92036999629187
  S       1.64665392021739      1.40513014531052     -1.29926854470688
  O       2.50629115004743      1.69358710555049      0.00269147295617
  O       0.42225761175878      2.34278814129677     -1.05657332312710
  Br      0.69520737219947     -0.32571876185204      3.47067211271184
  O      -0.34560734094191      2.96385650020837      1.74012521417263
  H      -0.29511405056962      3.63516413889335      1.04918148315342
  C      -2.63902871238851      0.55226060765421      1.52861142043302
  C      -3.26449286822345      1.83916167700101      0.98559273242134
  C      -2.86673102791533      1.83508106949574     -0.50641911697270
  C      -2.12927003331679      0.51159155023007     -0.68916231567725
  O      -1.60707227716139      0.22551384057040      0.60642010333147
  H      -3.36421595224303     -0.28460901432929      1.54836753506884
  H      -2.18044041534724      0.64321449237667      2.52485086051951
  H      -2.81005210037466      2.70014445492713      1.49568114761751
  H      -4.35470796595065      1.85301209113481      1.14200661904250
  H      -2.16448724048218      2.65441695904482     -0.72165442536070
  H      -3.72901734521908      1.92372141797170     -1.18574440307678
  H      -1.27324093092649      0.55350264203767     -1.37563267484235
  H      -2.81330210167302     -0.31083441495817     -0.97688130995518
