15
Coordinates from ORCA job orca
  Lr     -0.18909473214850     -0.50456990298621      0.03284943294586
  S       1.53143386184416      3.99889800145984      1.97326371927626
  C       0.99473122362736      2.59912927563816      1.35162652568472
  N       0.59825468967622      1.57325650264602      0.91395183477296
  Br     -1.09106585512867     -3.09511832077776     -0.04299486350564
  N       1.90985511898619     -1.21071699228554      0.38156012025233
  N       2.88565730415466     -1.83363197950464      0.63736328735045
  N       3.84325317036112     -2.42881007473836      0.88311545460816
  S       0.11225728571399      0.81162227999844     -4.87167118979593
  C       0.03939029742288      0.38165543477279     -3.31290637487699
  N      -0.01287977794552      0.06590470117514     -2.17389020507992
  Cl     -2.62736185334757      0.48657217406678      0.40547117223284
  O      -0.67603663397891     -0.35898956490855      2.49020299916264
  H      -1.56795741602450     -0.06112630155290      2.19750009328269
  H      -0.17841598112052      0.47607703220387      2.52234787683645
