19
Coordinates from ORCA job orca
  Pu     -1.03697699419451     -0.22477300147438      0.16360702593130
  C       1.30603527212827      0.65096580947640      2.34028201675784
  C       1.98104735836461      0.19008550338324      1.04567969971361
  O       3.16689423812266      0.27714070162009      0.88922339371198
  O       1.11413383278771     -0.26162343213736      0.16057441878435
  N      -0.06450165683896      0.14528085063583      2.42216481699218
  H       1.28263235061572      1.75231895732144      2.30932303201594
  H       1.93567928254863      0.36373517947502      3.19762907941843
  H      -0.63911751805090      0.69473152968653      3.06218496539496
  H      -0.10098411121351     -0.81649112095334      2.77223723119820
  C      -1.34879869798029      3.14493462063892     -0.35910324238336
  O      -1.22051548122126      1.77481541484599     -0.17012669894827
  H      -0.36235172241615      3.64125837503359     -0.33640721424506
  H      -1.98088347318351      3.59115548862329      0.42904343676427
  H      -1.81986568293658      3.36139906429221     -1.33342231309590
  O      -1.83100347537389     -1.83965962922145      1.66628467564276
  S      -2.76769774178140     -2.19622107131319      0.44019726154949
  O      -3.29193370144271     -0.72751977389497      0.14971721182130
  O      -1.66169207793392     -2.27883346603788     -0.69228879702402
