35
Coordinates from ORCA job orca
  Lr     -0.89348669417357     -0.45755026286771     -0.26775706095958
  C       1.16761125483604     -3.82514304560957      1.06505139617304
  C       0.34847203124373     -2.73699586192656      0.41600904780708
  O       0.89010444311733     -2.01456003435649     -0.46416911747239
  O      -0.85050725671107     -2.54928087022048      0.77282348727388
  N       2.54726279025961     -3.40918237240360      1.15561086617202
  H       0.98270167793585     -4.74099946625107      0.45964759451019
  H       0.74020032808168     -4.02191714392988      2.06081103680351
  H       2.83696146077971     -3.03817799656638      0.25041699816197
  H       3.15556882581997     -4.19120976598201      1.38431665330548
  O      -1.96176369242126      0.35777901460948     -1.97703471274388
  S      -2.75360504745626      1.53969971814459     -1.16235820924964
  O      -1.89591447131259      1.42812527243681      0.20304981877956
  O      -4.10934352236084      1.01384207695941     -0.87026758870974
  C      -3.38333318199243     -1.17968747745158      0.29058030088413
  O      -4.38149601801299     -1.58970155255834      0.61523685464892
  C       0.09380290963006      2.22643625906656     -3.35318169033325
  C       0.61686088030688      1.53844033478785     -2.19736106676299
  N       0.96817237407202      0.95425307342599     -1.25963358633046
  H      -0.87614348463754      1.74173520356972     -3.56221052205174
  H       0.77312164149506      2.12863613658118     -4.21166490629209
  H      -0.07196228492228      3.28788090704561     -3.11905483354117
  C       0.51095436892233      2.20696205551762      2.24048253083617
  P       0.58050115109256      0.39244286731487      2.05260897410075
  C       2.36405305605135     -0.00439045784804      2.05066337144224
  C      -0.00628571633754     -0.24170777084873      3.66705610124983
  H       1.00442899897234      2.54770744717321      3.16482884799853
  H      -0.54513156734854      2.51638404483379      2.22290790963027
  H       1.00334042678401      2.66488645023927      1.36891246069616
  H       2.87034614783911      0.40060209689716      2.94220586698402
  H       2.80951520696193      0.43439948034374      1.14404942275652
  H       2.50537531852792     -1.09918030140558      1.99802923344498
  H       0.59212926362474      0.15467655054614      4.50338257319186
  H       0.05372534005140     -1.34097845238480      3.66456807268466
  H      -1.06023695871872      0.04367384311785      3.80864387491105
