31
Coordinates from ORCA job orca
  Am      0.04839915238511     -0.00203051309359     -0.34085083777953
  O       0.72917362205104      2.30859002098434     -0.19451652469936
  H       1.35633461514940      2.82425170396353      0.33613552137086
  H       0.44552167521354      2.88969806288980     -0.92131807801751
  C       4.12357236170002     -0.54336063335970      1.83135030048043
  C       2.80636853949164     -0.30144598038672      1.44630770089072
  N       2.43519901533505     -0.40392414438694      0.15920550501085
  C       3.36857619671396     -0.75020195928144     -0.73929565925603
  C       4.68321608567132     -0.98942659163466     -0.32938161142438
  N       5.04844321905150     -0.88351403533383      0.94117674450333
  H       4.42765621975883     -0.45868461374844      2.88066794180679
  H       2.04794285166592     -0.02589518512083      2.19237876068551
  H       3.06154538475918     -0.84440567707163     -1.78527436153806
  H       5.44878852867558     -1.27423805773691     -1.05976482958676
  F      -2.64249231716295     -2.65551467755124      0.96292293780256
  P      -1.32515953250163     -3.54148953139440      0.97653582974848
  F      -0.74632541409820     -3.01234015036395      2.35506863995213
  F      -0.44711047351642     -2.37474015390648      0.08842442974490
  C      -1.79680485936251      0.49893883047597      2.13749771557544
  C      -2.89036726897937      0.64966381742625      1.10902247886402
  O      -2.27517584737125      0.48807722727756     -0.19049099463459
  H      -2.19848642331358      0.63169285115755      3.15397963772990
  H      -1.01563309104244      1.27756269522407      2.02774157173898
  H      -1.35855731268907     -0.51796698366024      2.13455872207923
  H      -3.35269098660563      1.64724980995632      1.16206259087485
  H      -3.66998919106871     -0.11692196191261      1.23511078382865
  H      -2.88810065697417      0.68682658611959     -0.91688399088401
  N       0.17342374037777      0.15058841921403     -3.10119953034118
  O       0.24466024808371      0.23004489713416     -4.26373612057025
  O       0.78517391859626     -0.73798332280586     -2.39563939554364
  O      -0.52580199999406      0.94519925092630     -2.36269587841245
