37
Coordinates from ORCA job orca
  Pu     -0.59060325018582     -0.07857380531771     -0.29901155508308
  C       3.19978558740704      2.18499982912613     -2.48827885578252
  P       2.42204177049079      0.59655660993828     -2.19292056987578
  O       1.29856980964226      0.78726714529839     -1.12932384642796
  C       3.65388381414034     -0.55597973732365     -1.57455074442837
  C       1.79543577733589     -0.04174770128050     -3.74628135621722
  H       2.44432436975082      2.88593282809410     -2.87475840035487
  H       4.01600193985152      2.08836803102326     -3.22025494303563
  H       3.59920003210886      2.57840727814732     -1.54159681059990
  H       4.47688125107293     -0.66970543944658     -2.29687571012420
  H       3.16948598875195     -1.53293653548340     -1.42279262573133
  H       4.06006085293205     -0.18857252798322     -0.61981641453463
  H       2.61188907999490     -0.08866807106636     -4.48337395900008
  H       0.98855455428125      0.60931338937332     -4.11307524771504
  H       1.38698206210608     -1.04913973685730     -3.57658861011386
  C       1.41174160894020     -0.63204362729713      1.58265998565241
  O       2.16932388461061     -0.87538702584678      2.37491280488603
  N      -1.78708105744376      1.45692005065516     -2.40674034973470
  O      -2.06765252979012      1.51221195106825     -1.17581576567691
  O      -1.04251246833943      0.50134396725680     -2.67012559759807
  C      -2.29572764309940     -0.79613950416948      2.49534431198610
  O      -1.64852807028877     -0.14707267318768      1.43819957671431
  H      -1.87446280020006     -0.46267370659186      3.45811070900121
  H      -2.16394818166183     -1.88874715470876      2.41497238074743
  H      -3.37325747395582     -0.55987400464118      2.48307781648761
  N       0.21360673245151     -2.80875180027422     -0.60841611075179
  O       0.59483485592230     -3.92455826374038     -0.71052842578092
  O       0.47781402399675     -1.89819988018707     -1.46411152516290
  O      -0.48907290909189     -2.39295157283449      0.36780633156886
  N      -2.56198135388768     -1.31879692242379     -1.21182267711297
  H      -2.43656397166946     -1.60900052499895     -2.18379165822858
  H      -3.40355316234965     -0.73903570741030     -1.18539326754285
  H      -2.75613963462846     -2.15800489100075     -0.66199721703566
  F      -0.07619269175605      3.72927864251886      2.73598571900941
  P      -0.96756901282893      2.47631324715852      2.36239599667848
  F      -0.04895225561696      2.05164288542627      1.04054990103902
  F      -0.27041952899402      1.43210495898689      3.34692670987903
