26
Coordinates from ORCA job orca
  Fm      0.47446045842167     -0.28755346410716     -0.58381043548172
  N       1.52249473079973      1.35019432735954      1.69333373483620
  O       1.97080173841290      2.01451162508118      2.61121090318424
  O       0.65609902995509      1.81932775033295      0.91649915701195
  O       1.90961752680094      0.17924619245396      1.48091183643719
  F      -0.51680028911577     -1.27807955409389     -2.12449283310913
  C      -2.54120159645024      1.79207934286732     -0.57370158384215
  C      -2.21288727970672      2.90482113004770      0.41324762488107
  C      -1.16129003102971      3.73827028411904     -0.34112408842512
  C      -0.76375591542823      2.83075795025664     -1.52039539350577
  O      -1.32153922630073      1.55965017224543     -1.24065710982785
  H      -3.31005572521074      2.12035946194780     -1.31027302945517
  H      -2.85412131365988      0.85499198178535     -0.09461397036810
  H      -1.75693962148249      2.44713505799211      1.30419734126789
  H      -3.10158421617315      3.48266129797575      0.71859434111201
  H      -0.29465660906258      3.93022007375470      0.30583576169407
  H      -1.56774705293924      4.70033188128755     -0.70017786490486
  H       0.31664249545004      2.66950573458038     -1.65375716335304
  H      -1.20136969712875      3.20947490954463     -2.46943409785681
  C      -2.15565983776553     -0.70568266086685      1.87406374550368
  N      -1.30508512092884     -0.57336190937789      1.07220479933999
  N       2.14098455957800     -2.64065180695226     -0.25671628808212
  O       2.50792895834751     -1.65219649027347     -0.94175074072438
  O       1.01524875270612     -2.55947526932866      0.28673778139752
  O       2.84354011255964     -3.62535985545712     -0.13281863950372
  F       1.60287516935099      1.01892183682513     -1.79561378822588
