37
Coordinates from ORCA job orca
  Am     -0.37779856100207     -0.14800804633368      0.70049453255435
  C      -0.79296769785820     -1.69817330287778      3.91781996065093
  N      -0.67421909656058     -1.10034068829803      2.90960432935071
  C       2.88430664493711     -0.57654234843107     -0.51630060564494
  O       1.57488299671666     -0.63005471686665     -0.14042032446281
  H       3.26254605997111      0.46216679739547     -0.65372597656679
  H       3.07522393259028     -1.10048906977340     -1.48446332280860
  H       3.56868911811874     -1.05826810700142      0.22151468726900
  C      -2.60768430964761      3.00726814151370      0.52123676270509
  C      -1.09021339859242      3.15369660646793      0.52374696245030
  O      -0.44962692094892      1.99636587362010      0.88171883167755
  H      -3.11246548749179      3.93852632121404      0.20870255224050
  H      -2.96572359275277      2.73904047935658      1.52973879235651
  H      -2.90722483312650      2.19595012670017     -0.16356774935035
  H      -0.81948249197693      3.98895535297485      1.21162373332809
  H      -0.77425120937105      3.50186033139596     -0.48922217141528
  C       1.63059695307879     -3.56444047850732      1.79256269865667
  O       0.75005066828803     -4.11240295603483      0.82646611191615
  P      -0.46865420334870     -3.14995304190008      0.28782682685751
  O      -1.78121375696942     -4.01130918133038      0.72956618799334
  C      -2.86692373206248     -3.32709016079099      1.33410914939457
  O      -0.47596490129091     -3.62887376709289     -1.28420136688120
  C       0.57883887916354     -3.14366181332363     -2.08852019610759
  H       2.51854775544270     -4.21411493597584      1.82762334366729
  H       1.16480410152250     -3.52508415595018      2.79109372898847
  H       1.94113483623474     -2.54245703970183      1.51048466614058
  H      -2.69285813157231     -3.18526765902777      2.41292746341687
  H      -3.76464918192889     -3.94554506167369      1.18221672308247
  H      -3.02720445353910     -2.33807048740535      0.87049906783372
  H       0.18563063624232     -2.97881278754672     -3.10438481338678
  H       1.39776894869804     -3.88313707442644     -2.13813386763584
  H       0.98488525999399     -2.19181679436667     -1.69629625137083
  C      -2.65950596763327     -1.06871565151464     -1.74875010974147
  O      -1.99385350031623     -0.61760338279204     -0.63902950382755
  H      -3.75461435175895     -0.87431594869130     -1.69205282950148
  H      -2.53660855475915     -2.16346659622580     -1.90140726813421
  H      -2.31199845649020     -0.58251477677823     -2.68920075569499
