14
Coordinates from ORCA job orca
  Ac     -0.23167703174492      1.19723071546129      1.16829536391378
  S       4.34397688049518      0.73082069423044     -1.51481116446416
  C       3.03123058037093      0.98062534206492     -0.61423341555516
  N       2.06261056830180      1.16542348300102      0.05182964022511
  F      -0.07524817483053      0.37209702834125      3.22047286254441
  Br     -1.78230353807976      3.74247770339122      1.19482764215208
  C      -1.84518011842497     -2.62158021147386      0.17258397392463
  C      -2.21327824380812     -1.29835917014613     -0.48243729960168
  O      -1.46535831357446     -0.25368050820073      0.00562082590031
  H      -2.46156835500505     -3.45335480168339     -0.20989466500416
  H      -1.98455917206632     -2.55877572489124      1.26473128359627
  H      -0.78516763296908     -2.86132198884563     -0.01469101822139
  H      -3.29993798774354     -1.11621957985825     -0.32616484682578
  H      -2.08473946092112     -1.39978298139089     -1.58302918258426
