32
Coordinates from ORCA job orca
  Fm     -1.07498881547919      1.49995827251386      0.44306364992758
  N       0.23867755071639      1.10680618815575      2.47286621012181
  H      -0.21333260084577      1.61067619333189      3.24169335473333
  H       1.16235876554977      1.53218444375896      2.35368287130787
  H       0.40745317940195      0.15421398536241      2.80432138987288
  C       2.78167761131253      2.71505930778054     -0.12769979596391
  C       1.75872009679673      2.35850082888791     -1.18542291887447
  O       0.56812515099333      1.90371325606351     -0.61271982723571
  H       3.71360697302910      3.07818576608887     -0.58709426540787
  H       3.03699561981556      1.83494853635841      0.48667407445130
  H       2.40200040273703      3.51298390692914      0.53193171909175
  H       2.16418497157528      1.57727073476020     -1.85551356948881
  H       1.54576749833546      3.23960107434713     -1.81793613898614
  N      -2.62981410373073      3.65239147123575      1.32384412369846
  O      -2.40436513295902      3.37033111124980      0.12580853858859
  O      -1.99809009134899      2.91160402315087      2.11397619620842
  C      -5.45940733630628     -1.20955395556049     -1.00956148112079
  O      -4.29535258082637     -0.49482806890794     -0.58084118929015
  P      -3.05536200565561     -1.22372396509920      0.15407963640143
  O      -2.76173820487676     -0.09496084703772      1.36387820754944
  C      -3.69143273372731      0.03424244947745      2.44987382172526
  O      -1.77070288781998     -0.49355518698190     -0.67983815083143
  C      -1.38819360442686     -1.01661231209311     -1.96209773429843
  H      -6.33468092199737     -0.79217785625782     -0.49360746850498
  H      -5.37781944804943     -2.28529472729671     -0.78346612218117
  H      -5.57552793263742     -1.06961190284345     -2.09252107131174
  H      -3.39914816855696      0.93051374779061      3.01264579043447
  H      -3.64895830695714     -0.85380831754364      3.09878726579539
  H      -4.71111999546423      0.17688434973366      2.06087026784088
  H      -0.46295083353227     -0.50301783413425     -2.25308604534333
  H      -2.17545919471756     -0.81067571579950     -2.70237767142970
  H      -1.20272292034768     -2.09904895742112     -1.88901366748024
