24
Coordinates from ORCA job orca
  Md     -0.43569863353496      0.38936383486711     -0.42646299985616
  N      -0.33402509353781      2.76725206389403      0.29395656961176
  C       0.39707771953338      2.82172945951056      1.57970226651639
  C      -0.11321528283264      1.76290172690658      2.53944036182189
  N      -0.00658756187699      0.37987050729495      2.01624488652231
  C       1.27929333065005     -0.30546035297874      2.29407164050323
  C       2.30502052858040     -0.16932565641492      1.18294680690296
  N       1.77976086125371     -0.70455825799114     -0.09208952247380
  H       0.09152700264911      3.42937183792300     -0.36279910360775
  H      -1.27934046187272      3.14133800784531      0.43558535576477
  H       0.30005567079173      3.81002083836279      2.05942900394225
  H       1.47086843083571      2.68886323948998      1.37270210217742
  H      -1.17829895863766      1.95447333663811      2.75542703940199
  H       0.41837823771346      1.85722148959440      3.50247792198101
  H      -0.73136706495075     -0.16198702491923      2.49082251515060
  H       1.06046904735703     -1.37556559333855      2.44987283244181
  H       1.71681174898036      0.05864790866007      3.23988329140882
  H       3.22901622958407     -0.68640915366623      1.49233054701769
  H       2.58551734260122      0.88468658220066      1.02445312245451
  H       1.70976044653843     -1.72594158140667     -0.02029714405249
  H       2.47761663548443     -0.56063380233417     -0.82907205810348
  S      -5.02051632438038     -1.92935349691298     -0.90874134843582
  C      -3.59893851957811     -1.19314661438169     -0.69811837001884
  N      -2.55538533135105     -0.65425929884330     -0.54486571707117
