22
Coordinates from ORCA job orca
  Pa     -0.08013345582388      0.43725653561742      1.03513040304560
  C       2.79460025609562     -1.17933492126200      1.20383454059193
  C       3.49221495028916     -2.15581629096499      0.30184078182583
  C       3.28794066418795     -1.58373996973491     -1.09655837940371
  C       1.82467953265581     -1.24312628815923     -1.13603710997915
  O       1.55142150469382     -0.74366347192853      0.32021798154831
  H       3.34053384496273     -0.23648030250605      1.36498177747095
  H       2.37070945816491     -1.58963885942718      2.13405909320052
  H       3.06971087118872     -3.16799185340858      0.40532204255074
  H       4.55969834641085     -2.21059158804192      0.58001689916376
  H       3.51782345987277     -2.31874087565686     -1.88748804601894
  H       3.91129730851786     -0.69362576363084     -1.27808020125875
  H       1.16150584372667     -2.11470556879589     -1.24815283975183
  H       1.54173354826847     -0.40959868637605     -1.80007239271958
  C      -4.70987643873717      0.19028797073631     -0.48023531170050
  C      -3.34945700834765      0.21772153563574     -0.09372963585705
  N      -2.21998688136378      0.24006768367150      0.23100839626047
  H      -4.84154386149361      0.75392375916953     -1.42746437917892
  H      -5.33104099094544      0.65801344187788      0.31239025960816
  H      -5.03690173716027     -0.85995908934146     -0.62874844001229
  Cl     -0.08276929402756      0.55559324389912      3.40140456708533
  Cl      0.50124007886402      2.63594935862701      0.38285999352912
