36
Coordinates from ORCA job orca
  Pu      0.03910324310313     -0.28873255882194     -0.27221261884923
  C       1.68047548591151     -1.11982398614262      2.58673265849288
  C       0.24046925654143     -0.91431421745289      2.17969365963210
  O      -0.12678679963612      0.28510417058996      1.98704642816775
  O      -0.32823505921879     -1.84701324453173      1.55801739391761
  N       2.24055271212294     -0.93835346403399      1.22538899035939
  H       1.87920363106145     -2.11675877269961      3.00056543757916
  H       2.03351731769526     -0.33603471410828      3.26812475969496
  H       2.54600047845240     -1.82946792573237      0.83158442157902
  H       3.03501381060428     -0.29786584006706      1.22827911587083
  N      -2.36445217519670     -0.25372091252993      0.32149985394868
  H      -2.41351885911439     -1.08521810536612      0.91830026959752
  H      -3.01894352902808     -0.39494619118361     -0.44988688788452
  H      -2.68982571596231      0.53062277560062      0.88930385656064
  C      -2.00134626568232     -0.11405635442039     -5.41908464407591
  O      -1.43150001396285     -0.28809040965589     -4.11925552771034
  P      -0.41261292402228      0.78595653744735     -3.48235005914974
  O      -1.13102483549047      1.06883414595850     -1.97933249485284
  C      -1.73323623978883      2.34401258078310     -1.71773783521668
  O       0.60639857805885     -0.30119137455842     -2.69478255303912
  C       1.44186718681272     -1.12683897333346     -3.52280278935681
  H      -3.08698051281768      0.01942185837255     -5.31648110399065
  H      -1.80123547703501     -1.02126529921073     -6.00438476847252
  H      -1.56943628087668      0.75889323571849     -5.93574876073356
  H      -2.82386793247184      2.22530800998007     -1.64776428252550
  H      -1.49108590126900      3.05242567098246     -2.52534439001263
  H      -1.31985127239079      2.73508602355596     -0.77661405952454
  H       2.21264563975040     -1.56529853281313     -2.87927780972180
  H       1.91406680500595     -0.51076145228760     -4.30425315404608
  H       0.83937762823185     -1.92867400062037     -3.97430191357539
  N      -0.08144222132965     -2.93950300231398     -1.30007331984602
  O       0.96433500356619     -2.38090348683630     -0.88231835331514
  O      -1.07745915944022     -2.20305245653835     -1.18911197836135
  N       1.15061567489972      1.59903661494854     -0.15547058800900
  N       1.89363547267569      2.10813790189135      0.65417933978742
  N       2.60136325024025      2.57694574942988      1.40867370708172
