21
Coordinates from ORCA job orca
  Lr     -0.21077879355485      1.45381561469946      0.43315510790454
  C       3.79081577382657     -0.66273992364750      0.55724486690474
  C       2.54100444682455     -0.06320349846559      1.12489805884270
  C       2.31267141384353     -0.10751871090523      2.51041946782126
  C       1.17056797689528      0.40955824708304      3.14756216933386
  O       0.21150452063419      0.98348187702596      2.54053886078574
  C       1.03092897646504      0.29285773584166      4.63436594615878
  O       1.74099749609633      0.45892028603822      0.28286979145091
  H       4.45677883344682     -1.07304068534876      1.32686007327495
  H       4.32470357896522      0.10527053947865     -0.02437492527669
  H       3.51333088511648     -1.45996645053538     -0.15084528019422
  H       3.07212101569125     -0.57940400025442      3.13445915324688
  H       1.90132759701311     -0.17481089943157      5.11157935539073
  H       0.12750754827034     -0.29563983579625      4.86128609003853
  H       0.86850625879254      1.29623957909764      5.05849565036411
  N      -2.33083221359486      0.09917694129115     -0.68962481599211
  O      -2.35492647833745      0.55289099426614      0.50123377496246
  O      -1.24468913296025      0.31409851309262     -1.31875224627493
  O      -3.24829875268422     -0.48025053903528     -1.17350530781898
  O      -0.10358609339995      3.42284776650150      0.09134715720586
  H      -0.00535485734973      4.36411644900394     -0.02651294812918
