23
Coordinates from ORCA job orca
  Pu     -0.59047090291225      0.80030615702389      0.47252303159243
  O      -0.56089655459948      1.25979556125230      2.39553496183128
  H      -0.55707485427577      1.52182158391877      3.32498696544116
  C       2.80672668498334     -0.24706569094330     -0.94662750917907
  P       2.23528842686674      0.62612351139082      0.54304118785474
  C       3.07251833521473      2.24232195361063      0.52550474602326
  C       2.88810424568405     -0.29495783106999      1.96587542161891
  H       3.90669696836725     -0.31350561228304     -0.94984837269523
  H       2.47786749300009      0.29946788014190     -1.84409223943147
  H       2.38585053211838     -1.26380683539158     -0.96201702529536
  H       4.16481115859211      2.09879822213185      0.50014595535647
  H       2.81206482683280      2.82181712810809      1.42416182086210
  H       2.76739831431451      2.80690638328981     -0.36881849149043
  H       3.98253762410637     -0.39467659865577      1.88904782490383
  H       2.43119022606107     -1.29578132641516      1.98774759278699
  H       2.63821243246583      0.23144514063047      2.89901471008011
  N      -0.44911801059149      2.96786283796449     -1.29778463136808
  O      -1.28017349666376      2.87767296809122     -0.36616325063890
  O       0.24141319519520      1.91992992839989     -1.41359822217989
  N      -1.05068332571261     -1.93766818656872      0.50821390951124
  O      -1.26929401908660     -3.08584644967678      0.56060120668655
  O      -1.95310591881949     -1.03859148775903      0.33221073990754
  O       0.12193661885890     -1.41866923719077      0.61923966782176
