21
Coordinates from ORCA job orca
  Md     -0.52589243326731     -0.31491654332425      1.04221553570202
  C       4.02686914137642     -0.87106426670163     -0.06256687113778
  P       2.78205198479551      0.40603904653190     -0.10289598401752
  O       1.42580314579695     -0.21794411594592      0.51166340107899
  C       2.45682404214337      0.94161003087018     -1.77490462276223
  C       3.24783864566212      1.80210544217530      0.90875128030796
  H       4.97065836081965     -0.46901139973443     -0.46695571593819
  H       3.71109554634076     -1.72588001079342     -0.68046115155227
  H       4.19576236600953     -1.20414318017736      0.97302713539827
  H       3.38263696470005      1.36828506165404     -2.19645908178202
  H       1.67626703035792      1.71968732929013     -1.77251119929203
  H       2.14779449884086      0.09003611491070     -2.40061027491304
  H       4.18397927647785      2.23323655465993      0.51592015551275
  H       3.41814174267073      1.48330431828441      1.94864011436920
  H       2.45973291702496      2.57114760618718      0.86505927362862
  C      -2.28129767156336     -1.18709903518745     -0.78504536807555
  O      -3.02380609228723     -1.47312763193590     -1.56784391010585
  C      -0.45181695201753      0.72340105505990      3.45853284327702
  O      -0.40395511311723      1.24976349915251      4.44167200651957
  C      -0.65395695257116      1.76651308081514      0.24961609113781
  N      -0.49373044819323      2.81585704420892     -0.23454365735575
