38
Coordinates from ORCA job orca
  Cf      0.20908906751217     -0.12307269270283     -0.66425564476925
  N       0.25677209567533     -2.51496713386527     -2.37113767181170
  O       0.19863679877262     -3.50184529662518     -3.06685732366285
  O       1.32046088375402     -1.88125880993334     -2.18526705027438
  O      -0.76175833054931     -2.06768495487044     -1.77061379986754
  C      -4.09421518933467      0.38469504991409     -0.03949518906186
  C      -3.07498574260354      0.40699073320697     -1.06223771761383
  N      -2.20918572915521      0.43016658813920     -1.83092066051909
  H      -4.08592024457209     -0.62681655726557      0.40490384667523
  H      -5.07848519787559      0.63117218833760     -0.46409092602918
  H      -3.81277717064207      1.11128305341703      0.73929945527081
  F      -0.79373506614194      2.16435382141369      3.36410130103337
  P      -1.03900364882984      0.61198326850717      3.01948559627676
  F      -2.62823187150765      0.72847450109780      2.74906109743167
  F      -1.27050497037911      0.21084995697717      4.60145692903244
  N       2.82586062448547      0.31914681220463      0.57710704653597
  O       2.66105993193936      0.03149215965547     -0.63504597349391
  O       1.77853320644581      0.62217828906266      1.21540173514482
  O       3.91022546648083      0.28383513673282      1.10624280341757
  N      -2.06489095496506     -2.37536025079143      0.83875806709313
  O      -1.31190191976640     -3.32299220008134      1.07574480557353
  O      -1.58945525964666     -1.20850479182506      0.72103514771280
  O      -3.27607785366709     -2.53889994077648      0.75096901553098
  N       1.15341968496761     -2.05985341847970      0.60461541066774
  H       0.36871038167502     -2.70492204925118      0.78841172927834
  H       1.55217019561738     -1.78504255200661      1.50137642381534
  H       1.87052356393326     -2.51224715449577      0.04020342654392
  N       1.65655199428092      1.31303536354045     -3.29191402354741
  O       2.38608552056647      2.13725200623654     -2.74263476330875
  O       0.62449357885204      0.89210236324798     -2.65999730864385
  O       1.85485692018981      0.91109171829408     -4.41850805874995
  F       1.38351360393908      4.30376681342549     -1.41483516337191
  P       1.47054510282266      3.00662786015947     -0.46826880299419
  F       3.05947399252857      3.08794302670529     -0.19442717566916
  F       1.08139044654044      3.81903402343061      0.87813017528088
  N      -1.58015812982508      2.54142443201269      0.59579938575329
  O      -1.34271034263499      3.10135887240328     -0.44797105528967
  O      -0.94917543888255      1.43470976484799      0.77727491060990
