14
Coordinates from ORCA job orca
  Pu      0.10951758455102      0.90722506009188      0.86908913013974
  N       2.04125548936100      0.38451221155978      0.08058352225720
  N       3.10445364539677      0.06231694759176     -0.39316150833766
  N       4.10448654410821     -0.24054285271638     -0.83396192613451
  C       0.04466648145822      0.22574941097597      3.15979584346104
  N       0.00980600020049     -0.03380040036835      4.29697472601640
  C      -2.21003520937047     -1.26622216602073     -0.28513406042937
  O      -1.24265492459250     -0.36549621820430      0.16026236425284
  H      -3.12834241657344     -0.72751626240921     -0.57092001839457
  H      -2.45347268832455     -1.98369073936881      0.51503061109305
  H      -1.83816151123464     -1.82225883224622     -1.16111962135670
  S      -1.34902033800904      5.55319749729012     -0.19144667028802
  C      -0.89349240381197      4.08540599287114      0.14504396716369
  N      -0.53818290864072      2.96127617714799      0.39852742339833
