22
Coordinates from ORCA job orca
  Pa      0.24186693264600      0.34026174156634      0.20883478029675
  N       0.46381692285382      0.52332527274472      2.54333660990720
  C       1.46771780695181     -0.58259392354942      2.50886865102910
  C       2.80948007721876     -0.11954838630958      1.95155446178960
  N       2.62634309313332      0.45055810898561      0.55113035840495
  H       0.85086958049301      1.37698252488638      2.99565299227022
  H      -0.35356560373001      0.27768158649113      3.13889752004883
  H       1.01364280421354     -1.44844618555509      1.93664196564372
  H       1.59809025421799     -1.05252767301125      3.51062403990378
  H       3.51663063782968     -0.96928649324803      1.91920179596746
  H       3.26282310361785      0.65390095113516      2.59950446038438
  H       3.16643242706087     -0.12547511105787     -0.13199461067556
  H       3.09739750779246      1.37545492700960      0.47145717518919
  N      -0.54838825085061      2.46476955726887     -0.68309768234440
  H      -0.95395819357401      2.39417898612730     -1.64312333163088
  H       0.14192867592693      3.23909030845513     -0.78480597614740
  H      -1.32416279356084      2.91233828724212     -0.14792832521263
  C      -2.61502051779468     -1.58537052886271      0.18847197630277
  O      -1.31588099461011     -0.67390896317274      0.22749036811793
  H      -3.32094396756432     -1.05928800937145      0.84976453374018
  H      -2.25773085740060     -2.55589101509037      0.56706678993284
  H      -2.89918864487088     -1.58690596268387     -0.87584855291809
