8
Coordinates from ORCA job orca
  Cm      0.11861153096522      0.21452652296904      0.63107519561085
  C       2.52111721214451     -0.06027499632874     -0.70246623477910
  N       1.87891354850215     -0.99421812307663     -0.37195579516367
  F      -0.02159220979685      0.03334846603054      2.66597891431653
  O      -1.72485540772819     -0.04867328172874     -0.22260212613266
  H      -2.59538535716205     -0.33738668602274     -0.49848547419778
  C       0.06407282776996      2.97126094621799      0.39892303185634
  O      -0.00338214469475      4.08551715193928      0.29313248848949
